MODEL 1
REMARK VINA RESULT:    -6.115      0.000      0.000
REMARK INTER + INTRA:          -9.075
REMARK INTER:                  -8.438
REMARK INTRA:                  -0.637
REMARK UNBOUND:                -0.637
REMARK  Name = /home/qwerty/github/datacon2025hack/step_04_hit_selection/docking/ligands/lig_466.pdb
REMARK  8 active torsions:
REMARK  status: ('A' for Active; 'I' for Inactive)
REMARK    1  A    between atoms: C1_1  and  O1_2
REMARK    2  A    between atoms: O1_2  and  C2_3
REMARK    3  A    between atoms: C5_6  and  C6_7
REMARK    4  A    between atoms: C6_7  and  C7_8
REMARK    5  A    between atoms: C7_8  and  C8_9
REMARK    6  A    between atoms: C7_8  and  N1_11
REMARK    7  A    between atoms: C8_9  and  O2_10
REMARK    8  A    between atoms: N2_14  and  C10_15
REMARK                            x       y       z     vdW  Elec       q    Type
REMARK                         _______ _______ _______ _____ _____    ______ ____
ROOT
ATOM      1  C7  UNL     1      23.057   6.024  34.438  0.00  0.00    +0.104 C 
ENDROOT
BRANCH   1   2
ATOM      2  N1  UNL     1      22.590   4.633  34.386  0.00  0.00    -0.294 N 
ATOM      3  C9  UNL     1      21.913   4.095  33.241  0.00  0.00    +0.304 C 
ATOM      4  O3  UNL     1      21.344   4.866  32.422  0.00  0.00    -0.252 OA
ATOM      5  N2  UNL     1      21.870   2.674  33.047  0.00  0.00    -0.269 N 
ATOM      6  H12 UNL     1      22.969   3.958  35.088  0.00  0.00    +0.151 HD
ATOM      7  H13 UNL     1      22.009   2.067  33.887  0.00  0.00    +0.156 HD
BRANCH   5   8
ATOM      8  C10 UNL     1      21.656   2.035  31.776  0.00  0.00    +0.035 A 
ATOM      9  C11 UNL     1      20.487   1.296  31.507  0.00  0.00    +0.026 A 
ATOM     10  C12 UNL     1      20.287   0.722  30.248  0.00  0.00    +0.040 A 
ATOM     11  C13 UNL     1      21.243   0.888  29.242  0.00  0.00    +0.124 A 
ATOM     12  F1  UNL     1      21.046   0.334  28.021  0.00  0.00    -0.205 F 
ATOM     13  C14 UNL     1      22.398   1.632  29.494  0.00  0.00    +0.040 A 
ATOM     14  C15 UNL     1      22.600   2.209  30.752  0.00  0.00    +0.026 A 
ENDBRANCH   5   8
ENDBRANCH   1   2
BRANCH   1  15
ATOM     15  C6  UNL     1      24.329   6.193  33.582  0.00  0.00    +0.059 C 
BRANCH  15  19
ATOM     16  C2  UNL     1      23.932   9.718  31.111  0.00  0.00    +0.120 A 
ATOM     17  C3  UNL     1      23.149   8.577  30.853  0.00  0.00    +0.046 A 
ATOM     18  C4  UNL     1      23.296   7.430  31.636  0.00  0.00    +0.007 A 
ATOM     19  C5  UNL     1      24.229   7.400  32.685  0.00  0.00    -0.045 A 
ATOM     20  C16 UNL     1      25.011   8.537  32.939  0.00  0.00    +0.007 A 
ATOM     21  C17 UNL     1      24.866   9.684  32.153  0.00  0.00    +0.046 A 
BRANCH  16  23
ATOM     22  C1  UNL     1      22.566  11.550  30.096  0.00  0.00    +0.277 C 
ATOM     23  O1  UNL     1      23.804  10.901  30.368  0.00  0.00    -0.495 OA
ENDBRANCH  16  23
ENDBRANCH  15  19
ENDBRANCH   1  15
BRANCH   1  24
ATOM     24  C8  UNL     1      23.299   6.450  35.895  0.00  0.00    +0.178 C 
BRANCH  24  25
ATOM     25  O2  UNL     1      23.300   7.847  36.027  0.00  0.00    -0.393 OA
ATOM     26  H11 UNL     1      24.098   8.087  36.567  0.00  0.00    +0.209 HD
ENDBRANCH  24  25
ENDBRANCH   1  24
TORSDOF 7
ENDMDL
MODEL 2
REMARK VINA RESULT:    -6.032     13.552     15.064
REMARK INTER + INTRA:          -8.960
REMARK INTER:                  -8.266
REMARK INTRA:                  -0.694
REMARK UNBOUND:                -0.637
REMARK  Name = /home/qwerty/github/datacon2025hack/step_04_hit_selection/docking/ligands/lig_466.pdb
REMARK  8 active torsions:
REMARK  status: ('A' for Active; 'I' for Inactive)
REMARK    1  A    between atoms: C1_1  and  O1_2
REMARK    2  A    between atoms: O1_2  and  C2_3
REMARK    3  A    between atoms: C5_6  and  C6_7
REMARK    4  A    between atoms: C6_7  and  C7_8
REMARK    5  A    between atoms: C7_8  and  C8_9
REMARK    6  A    between atoms: C7_8  and  N1_11
REMARK    7  A    between atoms: C8_9  and  O2_10
REMARK    8  A    between atoms: N2_14  and  C10_15
REMARK                            x       y       z     vdW  Elec       q    Type
REMARK                         _______ _______ _______ _____ _____    ______ ____
ROOT
ATOM      1  C7  UNL     1      11.833  14.003  31.621  0.00  0.00    +0.104 C 
ENDROOT
BRANCH   1   2
ATOM      2  N1  UNL     1      10.765  14.096  30.619  0.00  0.00    -0.294 N 
ATOM      3  C9  UNL     1      10.427  12.999  29.756  0.00  0.00    +0.304 C 
ATOM      4  O3  UNL     1      11.265  12.082  29.542  0.00  0.00    -0.252 OA
ATOM      5  N2  UNL     1       9.139  12.966  29.125  0.00  0.00    -0.269 N 
ATOM      6  H12 UNL     1      10.079  14.880  30.698  0.00  0.00    +0.151 HD
ATOM      7  H13 UNL     1       8.631  13.873  29.017  0.00  0.00    +0.156 HD
BRANCH   5   8
ATOM      8  C10 UNL     1       8.504  11.770  28.639  0.00  0.00    +0.035 A 
ATOM      9  C11 UNL     1       8.621  11.364  27.295  0.00  0.00    +0.026 A 
ATOM     10  C12 UNL     1       8.028  10.174  26.862  0.00  0.00    +0.040 A 
ATOM     11  C13 UNL     1       7.324   9.372  27.765  0.00  0.00    +0.124 A 
ATOM     12  F1  UNL     1       6.754   8.217  27.344  0.00  0.00    -0.205 F 
ATOM     13  C14 UNL     1       7.217   9.759  29.103  0.00  0.00    +0.040 A 
ATOM     14  C15 UNL     1       7.810  10.947  29.540  0.00  0.00    +0.026 A 
ENDBRANCH   5   8
ENDBRANCH   1   2
BRANCH   1  15
ATOM     15  C6  UNL     1      11.344  14.553  32.977  0.00  0.00    +0.059 C 
BRANCH  15  19
ATOM     16  C2  UNL     1      11.254  11.434  35.971  0.00  0.00    +0.120 A 
ATOM     17  C3  UNL     1      11.438  11.111  34.613  0.00  0.00    +0.046 A 
ATOM     18  C4  UNL     1      11.442  12.117  33.644  0.00  0.00    +0.007 A 
ATOM     19  C5  UNL     1      11.257  13.460  34.012  0.00  0.00    -0.045 A 
ATOM     20  C16 UNL     1      11.071  13.780  35.365  0.00  0.00    +0.007 A 
ATOM     21  C17 UNL     1      11.064  12.773  36.334  0.00  0.00    +0.046 A 
BRANCH  16  23
ATOM     22  C1  UNL     1      10.877   9.106  36.798  0.00  0.00    +0.277 C 
ATOM     23  O1  UNL     1      11.266  10.464  36.982  0.00  0.00    -0.495 OA
ENDBRANCH  16  23
ENDBRANCH  15  19
ENDBRANCH   1  15
BRANCH   1  24
ATOM     24  C8  UNL     1      13.087  14.747  31.133  0.00  0.00    +0.178 C 
BRANCH  24  25
ATOM     25  O2  UNL     1      12.792  15.593  30.052  0.00  0.00    -0.393 OA
ATOM     26  H11 UNL     1      12.981  16.521  30.351  0.00  0.00    +0.209 HD
ENDBRANCH  24  25
ENDBRANCH   1  24
TORSDOF 7
ENDMDL
MODEL 3
REMARK VINA RESULT:    -6.030     14.890     16.982
REMARK INTER + INTRA:          -8.959
REMARK INTER:                  -8.320
REMARK INTRA:                  -0.639
REMARK UNBOUND:                -0.637
REMARK  Name = /home/qwerty/github/datacon2025hack/step_04_hit_selection/docking/ligands/lig_466.pdb
REMARK  8 active torsions:
REMARK  status: ('A' for Active; 'I' for Inactive)
REMARK    1  A    between atoms: C1_1  and  O1_2
REMARK    2  A    between atoms: O1_2  and  C2_3
REMARK    3  A    between atoms: C5_6  and  C6_7
REMARK    4  A    between atoms: C6_7  and  C7_8
REMARK    5  A    between atoms: C7_8  and  C8_9
REMARK    6  A    between atoms: C7_8  and  N1_11
REMARK    7  A    between atoms: C8_9  and  O2_10
REMARK    8  A    between atoms: N2_14  and  C10_15
REMARK                            x       y       z     vdW  Elec       q    Type
REMARK                         _______ _______ _______ _____ _____    ______ ____
ROOT
ATOM      1  C7  UNL     1       8.104   9.711  25.860  0.00  0.00    +0.104 C 
ENDROOT
BRANCH   1   2
ATOM      2  N1  UNL     1       7.934  10.886  26.724  0.00  0.00    -0.294 N 
ATOM      3  C9  UNL     1       8.954  11.322  27.634  0.00  0.00    +0.304 C 
ATOM      4  O3  UNL     1       9.844  10.516  28.019  0.00  0.00    -0.252 OA
ATOM      5  N2  UNL     1       8.943  12.672  28.117  0.00  0.00    -0.269 N 
ATOM      6  H12 UNL     1       7.164  11.556  26.501  0.00  0.00    +0.151 HD
ATOM      7  H13 UNL     1       8.034  13.188  28.088  0.00  0.00    +0.156 HD
BRANCH   5   8
ATOM      8  C10 UNL     1      10.098  13.361  28.629  0.00  0.00    +0.035 A 
ATOM      9  C11 UNL     1      10.947  14.107  27.788  0.00  0.00    +0.026 A 
ATOM     10  C12 UNL     1      12.037  14.802  28.321  0.00  0.00    +0.040 A 
ATOM     11  C13 UNL     1      12.286  14.768  29.696  0.00  0.00    +0.124 A 
ATOM     12  F1  UNL     1      13.341  15.445  30.211  0.00  0.00    -0.205 F 
ATOM     13  C14 UNL     1      11.440  14.044  30.539  0.00  0.00    +0.040 A 
ATOM     14  C15 UNL     1      10.348  13.350  30.010  0.00  0.00    +0.026 A 
ENDBRANCH   5   8
ENDBRANCH   1   2
BRANCH   1  15
ATOM     15  C6  UNL     1       7.466   9.966  24.479  0.00  0.00    +0.059 C 
BRANCH  15  19
ATOM     16  C2  UNL     1      10.474  10.243  21.386  0.00  0.00    +0.120 A 
ATOM     17  C3  UNL     1       9.108  10.339  21.059  0.00  0.00    +0.046 A 
ATOM     18  C4  UNL     1       8.136  10.224  22.056  0.00  0.00    +0.007 A 
ATOM     19  C5  UNL     1       8.510  10.006  23.392  0.00  0.00    -0.045 A 
ATOM     20  C16 UNL     1       9.871   9.908  23.716  0.00  0.00    +0.007 A 
ATOM     21  C17 UNL     1      10.844  10.019  22.717  0.00  0.00    +0.046 A 
BRANCH  16  23
ATOM     22  C1  UNL     1      12.790  10.884  20.696  0.00  0.00    +0.277 C 
ATOM     23  O1  UNL     1      11.488  10.375  20.426  0.00  0.00    -0.495 OA
ENDBRANCH  16  23
ENDBRANCH  15  19
ENDBRANCH   1  15
BRANCH   1  24
ATOM     24  C8  UNL     1       7.508   8.465  26.533  0.00  0.00    +0.178 C 
BRANCH  24  25
ATOM     25  O2  UNL     1       6.525   8.811  27.474  0.00  0.00    -0.393 OA
ATOM     26  H11 UNL     1       6.642   9.776  27.674  0.00  0.00    +0.209 HD
ENDBRANCH  24  25
ENDBRANCH   1  24
TORSDOF 7
ENDMDL
MODEL 4
REMARK VINA RESULT:    -5.879      5.578     10.018
REMARK INTER + INTRA:          -8.750
REMARK INTER:                  -8.120
REMARK INTRA:                  -0.630
REMARK UNBOUND:                -0.637
REMARK  Name = /home/qwerty/github/datacon2025hack/step_04_hit_selection/docking/ligands/lig_466.pdb
REMARK  8 active torsions:
REMARK  status: ('A' for Active; 'I' for Inactive)
REMARK    1  A    between atoms: C1_1  and  O1_2
REMARK    2  A    between atoms: O1_2  and  C2_3
REMARK    3  A    between atoms: C5_6  and  C6_7
REMARK    4  A    between atoms: C6_7  and  C7_8
REMARK    5  A    between atoms: C7_8  and  C8_9
REMARK    6  A    between atoms: C7_8  and  N1_11
REMARK    7  A    between atoms: C8_9  and  O2_10
REMARK    8  A    between atoms: N2_14  and  C10_15
REMARK                            x       y       z     vdW  Elec       q    Type
REMARK                         _______ _______ _______ _____ _____    ______ ____
ROOT
ATOM      1  C7  UNL     1      20.361   1.842  25.482  0.00  0.00    +0.104 C 
ENDROOT
BRANCH   1   2
ATOM      2  N1  UNL     1      21.296   1.404  26.525  0.00  0.00    -0.294 N 
ATOM      3  C9  UNL     1      21.267   1.942  27.855  0.00  0.00    +0.304 C 
ATOM      4  O3  UNL     1      20.734   3.064  28.072  0.00  0.00    -0.252 OA
ATOM      5  N2  UNL     1      21.867   1.206  28.931  0.00  0.00    -0.269 N 
ATOM      6  H12 UNL     1      21.826   0.516  26.372  0.00  0.00    +0.151 HD
ATOM      7  H13 UNL     1      22.597   0.500  28.684  0.00  0.00    +0.156 HD
BRANCH   5   8
ATOM      8  C10 UNL     1      21.524   1.373  30.318  0.00  0.00    +0.035 A 
ATOM      9  C11 UNL     1      22.026   2.446  31.080  0.00  0.00    +0.026 A 
ATOM     10  C12 UNL     1      21.641   2.606  32.415  0.00  0.00    +0.040 A 
ATOM     11  C13 UNL     1      20.746   1.706  32.999  0.00  0.00    +0.124 A 
ATOM     12  F1  UNL     1      20.372   1.865  34.292  0.00  0.00    -0.205 F 
ATOM     13  C14 UNL     1      20.232   0.648  32.247  0.00  0.00    +0.040 A 
ATOM     14  C15 UNL     1      20.612   0.486  30.912  0.00  0.00    +0.026 A 
ENDBRANCH   5   8
ENDBRANCH   1   2
BRANCH   1  15
ATOM     15  C6  UNL     1      19.823   0.627  24.699  0.00  0.00    +0.059 C 
BRANCH  15  19
ATOM     16  C2  UNL     1      16.120  -0.853  26.368  0.00  0.00    +0.120 A 
ATOM     17  C3  UNL     1      16.642   0.386  26.785  0.00  0.00    +0.046 A 
ATOM     18  C4  UNL     1      17.852   0.851  26.264  0.00  0.00    +0.007 A 
ATOM     19  C5  UNL     1      18.562   0.087  25.323  0.00  0.00    -0.045 A 
ATOM     20  C16 UNL     1      18.041  -1.148  24.911  0.00  0.00    +0.007 A 
ATOM     21  C17 UNL     1      16.832  -1.615  25.435  0.00  0.00    +0.046 A 
BRANCH  16  23
ATOM     22  C1  UNL     1      14.105  -2.319  26.164  0.00  0.00    +0.277 C 
ATOM     23  O1  UNL     1      14.899  -1.352  26.844  0.00  0.00    -0.495 OA
ENDBRANCH  16  23
ENDBRANCH  15  19
ENDBRANCH   1  15
BRANCH   1  24
ATOM     24  C8  UNL     1      21.043   2.855  24.548  0.00  0.00    +0.178 C 
BRANCH  24  25
ATOM     25  O2  UNL     1      22.440   2.820  24.687  0.00  0.00    -0.393 OA
ATOM     26  H11 UNL     1      22.735   3.747  24.884  0.00  0.00    +0.209 HD
ENDBRANCH  24  25
ENDBRANCH   1  24
TORSDOF 7
ENDMDL
MODEL 5
REMARK VINA RESULT:    -5.751     15.655     16.956
REMARK INTER + INTRA:          -8.573
REMARK INTER:                  -7.822
REMARK INTRA:                  -0.751
REMARK UNBOUND:                -0.637
REMARK  Name = /home/qwerty/github/datacon2025hack/step_04_hit_selection/docking/ligands/lig_466.pdb
REMARK  8 active torsions:
REMARK  status: ('A' for Active; 'I' for Inactive)
REMARK    1  A    between atoms: C1_1  and  O1_2
REMARK    2  A    between atoms: O1_2  and  C2_3
REMARK    3  A    between atoms: C5_6  and  C6_7
REMARK    4  A    between atoms: C6_7  and  C7_8
REMARK    5  A    between atoms: C7_8  and  C8_9
REMARK    6  A    between atoms: C7_8  and  N1_11
REMARK    7  A    between atoms: C8_9  and  O2_10
REMARK    8  A    between atoms: N2_14  and  C10_15
REMARK                            x       y       z     vdW  Elec       q    Type
REMARK                         _______ _______ _______ _____ _____    ______ ____
ROOT
ATOM      1  C7  UNL     1      10.187   9.346  20.552  0.00  0.00    +0.104 C 
ENDROOT
BRANCH   1   2
ATOM      2  N1  UNL     1       9.829   8.038  19.991  0.00  0.00    -0.294 N 
ATOM      3  C9  UNL     1      10.274   6.806  20.576  0.00  0.00    +0.304 C 
ATOM      4  O3  UNL     1      11.289   6.791  21.325  0.00  0.00    -0.252 OA
ATOM      5  N2  UNL     1       9.571   5.589  20.287  0.00  0.00    -0.269 N 
ATOM      6  H12 UNL     1       9.041   7.993  19.305  0.00  0.00    +0.151 HD
ATOM      7  H13 UNL     1       8.998   5.559  19.413  0.00  0.00    +0.156 HD
BRANCH   5   8
ATOM      8  C10 UNL     1       9.599   4.417  21.122  0.00  0.00    +0.035 A 
ATOM      9  C11 UNL     1      10.601   3.436  20.986  0.00  0.00    +0.026 A 
ATOM     10  C12 UNL     1      10.627   2.330  21.840  0.00  0.00    +0.040 A 
ATOM     11  C13 UNL     1       9.663   2.195  22.843  0.00  0.00    +0.124 A 
ATOM     12  F1  UNL     1       9.692   1.124  23.672  0.00  0.00    -0.205 F 
ATOM     13  C14 UNL     1       8.675   3.171  22.995  0.00  0.00    +0.040 A 
ATOM     14  C15 UNL     1       8.647   4.280  22.144  0.00  0.00    +0.026 A 
ENDBRANCH   5   8
ENDBRANCH   1   2
BRANCH   1  15
ATOM     15  C6  UNL     1       8.923  10.081  21.046  0.00  0.00    +0.059 C 
BRANCH  15  19
ATOM     16  C2  UNL     1       8.723   9.980  25.363  0.00  0.00    +0.120 A 
ATOM     17  C3  UNL     1       7.545  10.090  24.600  0.00  0.00    +0.046 A 
ATOM     18  C4  UNL     1       7.613  10.148  23.206  0.00  0.00    +0.007 A 
ATOM     19  C5  UNL     1       8.855  10.103  22.551  0.00  0.00    -0.045 A 
ATOM     20  C16 UNL     1      10.028   9.995  23.314  0.00  0.00    +0.007 A 
ATOM     21  C17 UNL     1       9.960   9.941  24.710  0.00  0.00    +0.046 A 
BRANCH  16  23
ATOM     22  C1  UNL     1       7.640   9.327  27.520  0.00  0.00    +0.277 C 
ATOM     23  O1  UNL     1       8.705   9.894  26.763  0.00  0.00    -0.495 OA
ENDBRANCH  16  23
ENDBRANCH  15  19
ENDBRANCH   1  15
BRANCH   1  24
ATOM     24  C8  UNL     1      10.951  10.180  19.512  0.00  0.00    +0.178 C 
BRANCH  24  25
ATOM     25  O2  UNL     1      12.337   9.977  19.609  0.00  0.00    -0.393 OA
ATOM     26  H11 UNL     1      12.702  10.724  20.150  0.00  0.00    +0.209 HD
ENDBRANCH  24  25
ENDBRANCH   1  24
TORSDOF 7
ENDMDL
MODEL 6
REMARK VINA RESULT:    -5.669     15.610     17.158
REMARK INTER + INTRA:          -8.460
REMARK INTER:                  -7.390
REMARK INTRA:                  -1.071
REMARK UNBOUND:                -0.637
REMARK  Name = /home/qwerty/github/datacon2025hack/step_04_hit_selection/docking/ligands/lig_466.pdb
REMARK  8 active torsions:
REMARK  status: ('A' for Active; 'I' for Inactive)
REMARK    1  A    between atoms: C1_1  and  O1_2
REMARK    2  A    between atoms: O1_2  and  C2_3
REMARK    3  A    between atoms: C5_6  and  C6_7
REMARK    4  A    between atoms: C6_7  and  C7_8
REMARK    5  A    between atoms: C7_8  and  C8_9
REMARK    6  A    between atoms: C7_8  and  N1_11
REMARK    7  A    between atoms: C8_9  and  O2_10
REMARK    8  A    between atoms: N2_14  and  C10_15
REMARK                            x       y       z     vdW  Elec       q    Type
REMARK                         _______ _______ _______ _____ _____    ______ ____
ROOT
ATOM      1  C7  UNL     1       9.940   8.356  20.848  0.00  0.00    +0.104 C 
ENDROOT
BRANCH   1   2
ATOM      2  N1  UNL     1      10.208   7.157  20.045  0.00  0.00    -0.294 N 
ATOM      3  C9  UNL     1      11.097   6.121  20.488  0.00  0.00    +0.304 C 
ATOM      4  O3  UNL     1      11.972   6.369  21.361  0.00  0.00    -0.252 OA
ATOM      5  N2  UNL     1      10.997   4.809  19.916  0.00  0.00    -0.269 N 
ATOM      6  H12 UNL     1       9.560   6.936  19.256  0.00  0.00    +0.151 HD
ATOM      7  H13 UNL     1      10.547   4.725  18.976  0.00  0.00    +0.156 HD
BRANCH   5   8
ATOM      8  C10 UNL     1      11.467   3.608  20.554  0.00  0.00    +0.035 A 
ATOM      9  C11 UNL     1      12.752   3.090  20.300  0.00  0.00    +0.026 A 
ATOM     10  C12 UNL     1      13.197   1.945  20.967  0.00  0.00    +0.040 A 
ATOM     11  C13 UNL     1      12.371   1.311  21.900  0.00  0.00    +0.124 A 
ATOM     12  F1  UNL     1      12.806   0.204  22.548  0.00  0.00    -0.205 F 
ATOM     13  C14 UNL     1      11.101   1.826  22.169  0.00  0.00    +0.040 A 
ATOM     14  C15 UNL     1      10.654   2.973  21.506  0.00  0.00    +0.026 A 
ENDBRANCH   5   8
ENDBRANCH   1   2
BRANCH   1  15
ATOM     15  C6  UNL     1       8.494   8.331  21.383  0.00  0.00    +0.059 C 
BRANCH  15  19
ATOM     16  C2  UNL     1       7.781   4.562  23.378  0.00  0.00    +0.120 A 
ATOM     17  C3  UNL     1       7.188   4.828  22.129  0.00  0.00    +0.046 A 
ATOM     18  C4  UNL     1       7.399   6.056  21.497  0.00  0.00    +0.007 A 
ATOM     19  C5  UNL     1       8.199   7.039  22.102  0.00  0.00    -0.045 A 
ATOM     20  C16 UNL     1       8.786   6.774  23.348  0.00  0.00    +0.007 A 
ATOM     21  C17 UNL     1       8.572   5.546  23.982  0.00  0.00    +0.046 A 
BRANCH  16  23
ATOM     22  C1  UNL     1       8.514   2.832  25.027  0.00  0.00    +0.277 C 
ATOM     23  O1  UNL     1       7.618   3.337  24.041  0.00  0.00    -0.495 OA
ENDBRANCH  16  23
ENDBRANCH  15  19
ENDBRANCH   1  15
BRANCH   1  24
ATOM     24  C8  UNL     1      10.210   9.623  20.019  0.00  0.00    +0.178 C 
BRANCH  24  25
ATOM     25  O2  UNL     1      11.323   9.458  19.179  0.00  0.00    -0.393 OA
ATOM     26  H11 UNL     1      11.491  10.335  18.745  0.00  0.00    +0.209 HD
ENDBRANCH  24  25
ENDBRANCH   1  24
TORSDOF 7
ENDMDL
MODEL 7
REMARK VINA RESULT:    -5.606     11.004     13.050
REMARK INTER + INTRA:          -8.373
REMARK INTER:                  -7.627
REMARK INTRA:                  -0.746
REMARK UNBOUND:                -0.637
REMARK  Name = /home/qwerty/github/datacon2025hack/step_04_hit_selection/docking/ligands/lig_466.pdb
REMARK  8 active torsions:
REMARK  status: ('A' for Active; 'I' for Inactive)
REMARK    1  A    between atoms: C1_1  and  O1_2
REMARK    2  A    between atoms: O1_2  and  C2_3
REMARK    3  A    between atoms: C5_6  and  C6_7
REMARK    4  A    between atoms: C6_7  and  C7_8
REMARK    5  A    between atoms: C7_8  and  C8_9
REMARK    6  A    between atoms: C7_8  and  N1_11
REMARK    7  A    between atoms: C8_9  and  O2_10
REMARK    8  A    between atoms: N2_14  and  C10_15
REMARK                            x       y       z     vdW  Elec       q    Type
REMARK                         _______ _______ _______ _____ _____    ______ ____
ROOT
ATOM      1  C7  UNL     1      11.865  11.968  36.578  0.00  0.00    +0.104 C 
ENDROOT
BRANCH   1   2
ATOM      2  N1  UNL     1      13.086  12.466  37.221  0.00  0.00    -0.294 N 
ATOM      3  C9  UNL     1      14.396  12.107  36.760  0.00  0.00    +0.304 C 
ATOM      4  O3  UNL     1      14.560  11.065  36.069  0.00  0.00    -0.252 OA
ATOM      5  N2  UNL     1      15.520  12.928  37.107  0.00  0.00    -0.269 N 
ATOM      6  H12 UNL     1      13.006  13.285  37.866  0.00  0.00    +0.151 HD
ATOM      7  H13 UNL     1      15.428  13.541  37.949  0.00  0.00    +0.156 HD
BRANCH   5   8
ATOM      8  C10 UNL     1      16.756  12.967  36.371  0.00  0.00    +0.035 A 
ATOM      9  C11 UNL     1      17.862  12.176  36.739  0.00  0.00    +0.026 A 
ATOM     10  C12 UNL     1      19.034  12.203  35.978  0.00  0.00    +0.040 A 
ATOM     11  C13 UNL     1      19.113  13.009  34.839  0.00  0.00    +0.124 A 
ATOM     12  F1  UNL     1      20.250  13.031  34.101  0.00  0.00    -0.205 F 
ATOM     13  C14 UNL     1      18.017  13.786  34.458  0.00  0.00    +0.040 A 
ATOM     14  C15 UNL     1      16.841  13.760  35.215  0.00  0.00    +0.026 A 
ENDBRANCH   5   8
ENDBRANCH   1   2
BRANCH   1  15
ATOM     15  C6  UNL     1      11.121  13.121  35.875  0.00  0.00    +0.059 C 
BRANCH  15  19
ATOM     16  C2  UNL     1      11.412  12.884  31.567  0.00  0.00    +0.120 A 
ATOM     17  C3  UNL     1      11.510  11.719  32.352  0.00  0.00    +0.046 A 
ATOM     18  C4  UNL     1      11.441  11.800  33.745  0.00  0.00    +0.007 A 
ATOM     19  C5  UNL     1      11.279  13.043  34.378  0.00  0.00    -0.045 A 
ATOM     20  C16 UNL     1      11.184  14.203  33.595  0.00  0.00    +0.007 A 
ATOM     21  C17 UNL     1      11.257  14.122  32.201  0.00  0.00    +0.046 A 
BRANCH  16  23
ATOM     22  C1  UNL     1      11.332  14.000  29.332  0.00  0.00    +0.277 C 
ATOM     23  O1  UNL     1      11.452  12.852  30.166  0.00  0.00    -0.495 OA
ENDBRANCH  16  23
ENDBRANCH  15  19
ENDBRANCH   1  15
BRANCH   1  24
ATOM     24  C8  UNL     1      10.967  11.268  37.611  0.00  0.00    +0.178 C 
BRANCH  24  25
ATOM     25  O2  UNL     1      11.282   9.904  37.724  0.00  0.00    -0.393 OA
ATOM     26  H11 UNL     1      11.583   9.752  38.657  0.00  0.00    +0.209 HD
ENDBRANCH  24  25
ENDBRANCH   1  24
TORSDOF 7
ENDMDL
MODEL 8
REMARK VINA RESULT:    -5.527      7.590      9.190
REMARK INTER + INTRA:          -8.265
REMARK INTER:                  -7.566
REMARK INTRA:                  -0.699
REMARK UNBOUND:                -0.637
REMARK  Name = /home/qwerty/github/datacon2025hack/step_04_hit_selection/docking/ligands/lig_466.pdb
REMARK  8 active torsions:
REMARK  status: ('A' for Active; 'I' for Inactive)
REMARK    1  A    between atoms: C1_1  and  O1_2
REMARK    2  A    between atoms: O1_2  and  C2_3
REMARK    3  A    between atoms: C5_6  and  C6_7
REMARK    4  A    between atoms: C6_7  and  C7_8
REMARK    5  A    between atoms: C7_8  and  C8_9
REMARK    6  A    between atoms: C7_8  and  N1_11
REMARK    7  A    between atoms: C8_9  and  O2_10
REMARK    8  A    between atoms: N2_14  and  C10_15
REMARK                            x       y       z     vdW  Elec       q    Type
REMARK                         _______ _______ _______ _____ _____    ______ ____
ROOT
ATOM      1  C7  UNL     1      17.830  10.370  37.087  0.00  0.00    +0.104 C 
ENDROOT
BRANCH   1   2
ATOM      2  N1  UNL     1      19.247  10.152  37.400  0.00  0.00    -0.294 N 
ATOM      3  C9  UNL     1      19.967   9.002  36.930  0.00  0.00    +0.304 C 
ATOM      4  O3  UNL     1      19.343   7.961  36.588  0.00  0.00    -0.252 OA
ATOM      5  N2  UNL     1      21.400   9.038  36.873  0.00  0.00    -0.269 N 
ATOM      6  H12 UNL     1      19.805  10.960  37.759  0.00  0.00    +0.151 HD
ATOM      7  H13 UNL     1      21.891   9.730  37.484  0.00  0.00    +0.156 HD
BRANCH   5   8
ATOM      8  C10 UNL     1      22.200   8.193  36.027  0.00  0.00    +0.035 A 
ATOM      9  C11 UNL     1      22.429   8.506  34.673  0.00  0.00    +0.026 A 
ATOM     10  C12 UNL     1      23.247   7.688  33.887  0.00  0.00    +0.040 A 
ATOM     11  C13 UNL     1      23.851   6.557  34.444  0.00  0.00    +0.124 A 
ATOM     12  F1  UNL     1      24.646   5.768  33.682  0.00  0.00    -0.205 F 
ATOM     13  C14 UNL     1      23.641   6.247  35.790  0.00  0.00    +0.040 A 
ATOM     14  C15 UNL     1      22.827   7.064  36.580  0.00  0.00    +0.026 A 
ENDBRANCH   5   8
ENDBRANCH   1   2
BRANCH   1  15
ATOM     15  C6  UNL     1      17.571  11.861  36.789  0.00  0.00    +0.059 C 
BRANCH  15  19
ATOM     16  C2  UNL     1      13.495  12.667  35.591  0.00  0.00    +0.120 A 
ATOM     17  C3  UNL     1      14.046  13.310  36.716  0.00  0.00    +0.046 A 
ATOM     18  C4  UNL     1      15.354  13.030  37.117  0.00  0.00    +0.007 A 
ATOM     19  C5  UNL     1      16.133  12.101  36.407  0.00  0.00    -0.045 A 
ATOM     20  C16 UNL     1      15.582  11.459  35.287  0.00  0.00    +0.007 A 
ATOM     21  C17 UNL     1      14.271  11.737  34.888  0.00  0.00    +0.046 A 
BRANCH  16  23
ATOM     22  C1  UNL     1      11.048  13.002  35.976  0.00  0.00    +0.277 C 
ATOM     23  O1  UNL     1      12.196  12.932  35.136  0.00  0.00    -0.495 OA
ENDBRANCH  16  23
ENDBRANCH  15  19
ENDBRANCH   1  15
BRANCH   1  24
ATOM     24  C8  UNL     1      16.948   9.866  38.241  0.00  0.00    +0.178 C 
BRANCH  24  25
ATOM     25  O2  UNL     1      16.504   8.555  38.012  0.00  0.00    -0.393 OA
ATOM     26  H11 UNL     1      16.378   8.132  38.902  0.00  0.00    +0.209 HD
ENDBRANCH  24  25
ENDBRANCH   1  24
TORSDOF 7
ENDMDL
MODEL 9
REMARK VINA RESULT:    -5.517      5.680      8.477
REMARK INTER + INTRA:          -8.250
REMARK INTER:                  -7.906
REMARK INTRA:                  -0.344
REMARK UNBOUND:                -0.637
REMARK  Name = /home/qwerty/github/datacon2025hack/step_04_hit_selection/docking/ligands/lig_466.pdb
REMARK  8 active torsions:
REMARK  status: ('A' for Active; 'I' for Inactive)
REMARK    1  A    between atoms: C1_1  and  O1_2
REMARK    2  A    between atoms: O1_2  and  C2_3
REMARK    3  A    between atoms: C5_6  and  C6_7
REMARK    4  A    between atoms: C6_7  and  C7_8
REMARK    5  A    between atoms: C7_8  and  C8_9
REMARK    6  A    between atoms: C7_8  and  N1_11
REMARK    7  A    between atoms: C8_9  and  O2_10
REMARK    8  A    between atoms: N2_14  and  C10_15
REMARK                            x       y       z     vdW  Elec       q    Type
REMARK                         _______ _______ _______ _____ _____    ______ ____
ROOT
ATOM      1  C7  UNL     1      22.011   1.193  27.622  0.00  0.00    +0.104 C 
ENDROOT
BRANCH   1   2
ATOM      2  N1  UNL     1      20.545   1.169  27.561  0.00  0.00    -0.294 N 
ATOM      3  C9  UNL     1      19.831   1.063  26.321  0.00  0.00    +0.304 C 
ATOM      4  O3  UNL     1      20.391   1.387  25.239  0.00  0.00    -0.252 OA
ATOM      5  N2  UNL     1      18.471   0.606  26.323  0.00  0.00    -0.269 N 
ATOM      6  H12 UNL     1      20.017   0.978  28.443  0.00  0.00    +0.151 HD
ATOM      7  H13 UNL     1      17.932   0.701  27.214  0.00  0.00    +0.156 HD
BRANCH   5   8
ATOM      8  C10 UNL     1      17.808   0.024  25.187  0.00  0.00    +0.035 A 
ATOM      9  C11 UNL     1      17.150   0.818  24.228  0.00  0.00    +0.026 A 
ATOM     10  C12 UNL     1      16.552   0.227  23.110  0.00  0.00    +0.040 A 
ATOM     11  C13 UNL     1      16.613  -1.158  22.933  0.00  0.00    +0.124 A 
ATOM     12  F1  UNL     1      16.036  -1.728  21.848  0.00  0.00    -0.205 F 
ATOM     13  C14 UNL     1      17.277  -1.952  23.871  0.00  0.00    +0.040 A 
ATOM     14  C15 UNL     1      17.878  -1.364  24.988  0.00  0.00    +0.026 A 
ENDBRANCH   5   8
ENDBRANCH   1   2
BRANCH   1  15
ATOM     15  C6  UNL     1      22.507   0.476  28.894  0.00  0.00    +0.059 C 
BRANCH  15  19
ATOM     16  C2  UNL     1      20.521   1.797  32.499  0.00  0.00    +0.120 A 
ATOM     17  C3  UNL     1      20.069   0.651  31.819  0.00  0.00    +0.046 A 
ATOM     18  C4  UNL     1      20.696   0.239  30.640  0.00  0.00    +0.007 A 
ATOM     19  C5  UNL     1      21.779   0.966  30.119  0.00  0.00    -0.045 A 
ATOM     20  C16 UNL     1      22.226   2.110  30.797  0.00  0.00    +0.007 A 
ATOM     21  C17 UNL     1      21.596   2.524  31.974  0.00  0.00    +0.046 A 
BRANCH  16  23
ATOM     22  C1  UNL     1      18.671   1.807  34.181  0.00  0.00    +0.277 C 
ATOM     23  O1  UNL     1      19.940   2.237  33.698  0.00  0.00    -0.495 OA
ENDBRANCH  16  23
ENDBRANCH  15  19
ENDBRANCH   1  15
BRANCH   1  24
ATOM     24  C8  UNL     1      22.522   2.642  27.559  0.00  0.00    +0.178 C 
BRANCH  24  25
ATOM     25  O2  UNL     1      22.900   2.996  26.254  0.00  0.00    -0.393 OA
ATOM     26  H11 UNL     1      22.430   3.843  26.036  0.00  0.00    +0.209 HD
ENDBRANCH  24  25
ENDBRANCH   1  24
TORSDOF 7
ENDMDL
