MODEL 1
REMARK VINA RESULT:    -8.044      0.000      0.000
REMARK INTER + INTRA:          -9.120
REMARK INTER:                  -8.985
REMARK INTRA:                  -0.135
REMARK UNBOUND:                -0.135
REMARK  Name = /home/qwerty/github/datacon2025hack/step_04_hit_selection/docking/ligands/lig_598.pdb
REMARK  3 active torsions:
REMARK  status: ('A' for Active; 'I' for Inactive)
REMARK    1  A    between atoms: C1_1  and  C2_2
REMARK    2  A    between atoms: N1_4  and  C3_5
REMARK    3  A    between atoms: N3_16  and  C12_17
REMARK                            x       y       z     vdW  Elec       q    Type
REMARK                         _______ _______ _______ _____ _____    ______ ____
ROOT
ATOM      1  C3  UNL     1      22.831  13.216  19.478  0.00  0.00    +0.037 A 
ATOM      2  C4  UNL     1      21.754  13.733  18.740  0.00  0.00    +0.023 A 
ATOM      3  C5  UNL     1      20.665  12.926  18.414  0.00  0.00    +0.002 A 
ATOM      4  C6  UNL     1      20.627  11.598  18.836  0.00  0.00    +0.005 A 
ATOM      5  C7  UNL     1      21.689  11.055  19.572  0.00  0.00    -0.025 A 
ATOM      6  C8  UNL     1      22.808  11.859  19.883  0.00  0.00    -0.020 A 
ATOM      7  C9  UNL     1      23.945  11.260  20.669  0.00  0.00    +0.056 C 
ATOM      8  C10 UNL     1      24.100   9.778  20.343  0.00  0.00    +0.114 C 
ATOM      9  N2  UNL     1      22.835   9.068  20.575  0.00  0.00    -0.281 N 
ATOM     10  C11 UNL     1      22.850   7.741  21.153  0.00  0.00    +0.307 C 
ATOM     11  O2  UNL     1      23.952   7.183  21.411  0.00  0.00    -0.252 OA
ATOM     12  N3  UNL     1      21.625   7.030  21.410  0.00  0.00    -0.269 N 
ATOM     13  C24 UNL     1      21.568   9.632  20.075  0.00  0.00    +0.144 C 
ATOM     14  H12 UNL     1      20.790   7.240  20.820  0.00  0.00    +0.156 HD
ENDROOT
BRANCH  12  15
ATOM     15  C12 UNL     1      21.515   5.940  22.343  0.00  0.00    +0.038 A 
ATOM     16  C13 UNL     1      20.609   4.883  22.065  0.00  0.00    +0.024 A 
ATOM     17  C14 UNL     1      20.455   3.808  22.959  0.00  0.00    +0.014 A 
ATOM     18  C15 UNL     1      21.209   3.830  24.128  0.00  0.00    +0.028 A 
ATOM     19  C16 UNL     1      22.077   4.858  24.422  0.00  0.00    +0.138 A 
ATOM     20  C17 UNL     1      22.249   5.932  23.554  0.00  0.00    +0.070 A 
ATOM     21  O3  UNL     1      22.665   4.668  25.588  0.00  0.00    -0.455 OA
ATOM     22  C18 UNL     1      22.197   3.531  26.062  0.00  0.00    +0.136 A 
ATOM     23  C19 UNL     1      22.523   2.917  27.269  0.00  0.00    +0.047 A 
ATOM     24  C20 UNL     1      21.892   1.697  27.578  0.00  0.00    +0.004 A 
ATOM     25  C21 UNL     1      20.960   1.121  26.685  0.00  0.00    +0.001 A 
ATOM     26  C22 UNL     1      20.646   1.760  25.471  0.00  0.00    +0.012 A 
ATOM     27  C23 UNL     1      21.286   2.966  25.193  0.00  0.00    +0.028 A 
ENDBRANCH  12  15
BRANCH   1  31
ATOM     28  C1  UNL     1      25.038  15.727  21.441  0.00  0.00    +0.109 C 
ATOM     29  C2  UNL     1      23.820  14.995  20.983  0.00  0.00    +0.214 C 
ATOM     30  O1  UNL     1      22.722  15.187  21.572  0.00  0.00    -0.276 OA
ATOM     31  N1  UNL     1      23.907  14.083  19.879  0.00  0.00    -0.285 N 
ATOM     32  H4  UNL     1      24.791  14.072  19.321  0.00  0.00    +0.155 HD
ENDBRANCH   1  31
TORSDOF 2
ENDMDL
MODEL 2
REMARK VINA RESULT:    -7.772      1.404      2.167
REMARK INTER + INTRA:          -8.816
REMARK INTER:                  -8.687
REMARK INTRA:                  -0.128
REMARK UNBOUND:                -0.135
REMARK  Name = /home/qwerty/github/datacon2025hack/step_04_hit_selection/docking/ligands/lig_598.pdb
REMARK  3 active torsions:
REMARK  status: ('A' for Active; 'I' for Inactive)
REMARK    1  A    between atoms: C1_1  and  C2_2
REMARK    2  A    between atoms: N1_4  and  C3_5
REMARK    3  A    between atoms: N3_16  and  C12_17
REMARK                            x       y       z     vdW  Elec       q    Type
REMARK                         _______ _______ _______ _____ _____    ______ ____
ROOT
ATOM      1  C3  UNL     1      21.005  12.163  19.451  0.00  0.00    +0.037 A 
ATOM      2  C4  UNL     1      19.705  12.499  19.035  0.00  0.00    +0.023 A 
ATOM      3  C5  UNL     1      18.652  11.602  19.209  0.00  0.00    +0.002 A 
ATOM      4  C6  UNL     1      18.877  10.367  19.816  0.00  0.00    +0.005 A 
ATOM      5  C7  UNL     1      20.164  10.005  20.238  0.00  0.00    -0.025 A 
ATOM      6  C8  UNL     1      21.241  10.898  20.040  0.00  0.00    -0.020 A 
ATOM      7  C9  UNL     1      22.620  10.493  20.493  0.00  0.00    +0.056 C 
ATOM      8  C10 UNL     1      22.807   8.986  20.362  0.00  0.00    +0.114 C 
ATOM      9  N2  UNL     1      21.753   8.274  21.100  0.00  0.00    -0.281 N 
ATOM     10  C11 UNL     1      22.077   7.071  21.835  0.00  0.00    +0.307 C 
ATOM     11  O2  UNL     1      23.253   6.613  21.800  0.00  0.00    -0.252 OA
ATOM     12  N3  UNL     1      21.070   6.363  22.582  0.00  0.00    -0.269 N 
ATOM     13  C24 UNL     1      20.345   8.688  20.962  0.00  0.00    +0.144 C 
ATOM     14  H12 UNL     1      20.076   6.432  22.273  0.00  0.00    +0.156 HD
ENDROOT
BRANCH  12  15
ATOM     15  C12 UNL     1      21.365   5.449  23.654  0.00  0.00    +0.038 A 
ATOM     16  C13 UNL     1      22.460   5.726  24.514  0.00  0.00    +0.024 A 
ATOM     17  C14 UNL     1      22.797   4.849  25.561  0.00  0.00    +0.014 A 
ATOM     18  C15 UNL     1      22.028   3.699  25.711  0.00  0.00    +0.028 A 
ATOM     19  C16 UNL     1      20.975   3.406  24.872  0.00  0.00    +0.138 A 
ATOM     20  C17 UNL     1      20.620   4.257  23.829  0.00  0.00    +0.070 A 
ATOM     21  O3  UNL     1      20.410   2.260  25.197  0.00  0.00    -0.455 OA
ATOM     22  C18 UNL     1      21.075   1.796  26.237  0.00  0.00    +0.136 A 
ATOM     23  C19 UNL     1      20.846   0.610  26.930  0.00  0.00    +0.047 A 
ATOM     24  C20 UNL     1      21.689   0.310  28.017  0.00  0.00    +0.004 A 
ATOM     25  C21 UNL     1      22.732   1.191  28.384  0.00  0.00    +0.001 A 
ATOM     26  C22 UNL     1      22.945   2.383  27.669  0.00  0.00    +0.012 A 
ATOM     27  C23 UNL     1      22.094   2.654  26.598  0.00  0.00    +0.028 A 
ENDBRANCH  12  15
BRANCH   1  31
ATOM     28  C1  UNL     1      23.610  14.920  20.255  0.00  0.00    +0.109 C 
ATOM     29  C2  UNL     1      22.386  14.072  20.376  0.00  0.00    +0.214 C 
ATOM     30  O1  UNL     1      21.645  14.192  21.389  0.00  0.00    -0.276 OA
ATOM     31  N1  UNL     1      22.063  13.132  19.342  0.00  0.00    -0.285 N 
ATOM     32  H4  UNL     1      22.611  13.175  18.451  0.00  0.00    +0.155 HD
ENDBRANCH   1  31
TORSDOF 2
ENDMDL
MODEL 3
REMARK VINA RESULT:    -7.696     13.624     15.931
REMARK INTER + INTRA:          -8.731
REMARK INTER:                  -8.211
REMARK INTRA:                  -0.520
REMARK UNBOUND:                -0.135
REMARK  Name = /home/qwerty/github/datacon2025hack/step_04_hit_selection/docking/ligands/lig_598.pdb
REMARK  3 active torsions:
REMARK  status: ('A' for Active; 'I' for Inactive)
REMARK    1  A    between atoms: C1_1  and  C2_2
REMARK    2  A    between atoms: N1_4  and  C3_5
REMARK    3  A    between atoms: N3_16  and  C12_17
REMARK                            x       y       z     vdW  Elec       q    Type
REMARK                         _______ _______ _______ _____ _____    ______ ____
ROOT
ATOM      1  C3  UNL     1       8.675   4.081  21.827  0.00  0.00    +0.037 A 
ATOM      2  C4  UNL     1       9.826   4.060  21.021  0.00  0.00    +0.023 A 
ATOM      3  C5  UNL     1      11.051   3.652  21.546  0.00  0.00    +0.002 A 
ATOM      4  C6  UNL     1      11.142   3.242  22.876  0.00  0.00    +0.005 A 
ATOM      5  C7  UNL     1      10.010   3.255  23.703  0.00  0.00    -0.025 A 
ATOM      6  C8  UNL     1       8.770   3.693  23.186  0.00  0.00    -0.020 A 
ATOM      7  C9  UNL     1       7.564   3.708  24.088  0.00  0.00    +0.056 C 
ATOM      8  C10 UNL     1       7.974   4.009  25.525  0.00  0.00    +0.114 C 
ATOM      9  N2  UNL     1       8.990   3.049  25.979  0.00  0.00    -0.281 N 
ATOM     10  C11 UNL     1       8.948   2.544  27.335  0.00  0.00    +0.307 C 
ATOM     11  O2  UNL     1       8.066   2.966  28.133  0.00  0.00    -0.252 OA
ATOM     12  N3  UNL     1       9.919   1.589  27.801  0.00  0.00    -0.269 N 
ATOM     13  C24 UNL     1      10.140   2.726  25.115  0.00  0.00    +0.144 C 
ATOM     14  H12 UNL     1      10.865   1.580  27.361  0.00  0.00    +0.156 HD
ENDROOT
BRANCH  12  15
ATOM     15  C12 UNL     1       9.713   0.732  28.939  0.00  0.00    +0.038 A 
ATOM     16  C13 UNL     1       8.922  -0.437  28.787  0.00  0.00    +0.024 A 
ATOM     17  C14 UNL     1       8.678  -1.292  29.878  0.00  0.00    +0.014 A 
ATOM     18  C15 UNL     1       9.228  -0.941  31.107  0.00  0.00    +0.028 A 
ATOM     19  C16 UNL     1       9.981   0.200  31.275  0.00  0.00    +0.138 A 
ATOM     20  C17 UNL     1      10.238   1.062  30.213  0.00  0.00    +0.070 A 
ATOM     21  O3  UNL     1      10.378   0.330  32.526  0.00  0.00    -0.455 OA
ATOM     22  C18 UNL     1       9.898  -0.708  33.181  0.00  0.00    +0.136 A 
ATOM     23  C19 UNL     1      10.053  -1.003  34.533  0.00  0.00    +0.047 A 
ATOM     24  C20 UNL     1       9.444  -2.173  35.025  0.00  0.00    +0.004 A 
ATOM     25  C21 UNL     1       8.703  -3.015  34.165  0.00  0.00    +0.001 A 
ATOM     26  C22 UNL     1       8.560  -2.697  32.802  0.00  0.00    +0.012 A 
ATOM     27  C23 UNL     1       9.173  -1.532  32.345  0.00  0.00    +0.028 A 
ENDBRANCH  12  15
BRANCH   1  31
ATOM     28  C1  UNL     1       5.691   6.047  20.324  0.00  0.00    +0.109 C 
ATOM     29  C2  UNL     1       6.940   5.773  21.093  0.00  0.00    +0.214 C 
ATOM     30  O1  UNL     1       7.580   6.733  21.602  0.00  0.00    -0.276 OA
ATOM     31  N1  UNL     1       7.403   4.424  21.249  0.00  0.00    -0.285 N 
ATOM     32  H4  UNL     1       6.765   3.650  20.952  0.00  0.00    +0.155 HD
ENDBRANCH   1  31
TORSDOF 2
ENDMDL
MODEL 4
REMARK VINA RESULT:    -7.686      5.179     11.403
REMARK INTER + INTRA:          -8.719
REMARK INTER:                  -8.228
REMARK INTRA:                  -0.491
REMARK UNBOUND:                -0.135
REMARK  Name = /home/qwerty/github/datacon2025hack/step_04_hit_selection/docking/ligands/lig_598.pdb
REMARK  3 active torsions:
REMARK  status: ('A' for Active; 'I' for Inactive)
REMARK    1  A    between atoms: C1_1  and  C2_2
REMARK    2  A    between atoms: N1_4  and  C3_5
REMARK    3  A    between atoms: N3_16  and  C12_17
REMARK                            x       y       z     vdW  Elec       q    Type
REMARK                         _______ _______ _______ _____ _____    ______ ____
ROOT
ATOM      1  C3  UNL     1      14.796   2.089  20.220  0.00  0.00    +0.037 A 
ATOM      2  C4  UNL     1      13.464   1.954  20.644  0.00  0.00    +0.023 A 
ATOM      3  C5  UNL     1      12.820   3.002  21.302  0.00  0.00    +0.002 A 
ATOM      4  C6  UNL     1      13.490   4.203  21.529  0.00  0.00    +0.005 A 
ATOM      5  C7  UNL     1      14.821   4.364  21.119  0.00  0.00    -0.025 A 
ATOM      6  C8  UNL     1      15.489   3.297  20.476  0.00  0.00    -0.020 A 
ATOM      7  C9  UNL     1      16.920   3.482  20.046  0.00  0.00    +0.056 C 
ATOM      8  C10 UNL     1      17.654   4.410  21.009  0.00  0.00    +0.114 C 
ATOM      9  N2  UNL     1      16.943   5.691  21.125  0.00  0.00    -0.281 N 
ATOM     10  C11 UNL     1      17.694   6.925  21.212  0.00  0.00    +0.307 C 
ATOM     11  O2  UNL     1      18.955   6.890  21.235  0.00  0.00    -0.252 OA
ATOM     12  N3  UNL     1      17.025   8.196  21.307  0.00  0.00    -0.269 N 
ATOM     13  C24 UNL     1      15.482   5.711  21.316  0.00  0.00    +0.144 C 
ATOM     14  H12 UNL     1      16.075   8.232  21.738  0.00  0.00    +0.156 HD
ENDROOT
BRANCH  12  15
ATOM     15  C12 UNL     1      17.642   9.452  20.970  0.00  0.00    +0.038 A 
ATOM     16  C13 UNL     1      17.670   9.864  19.612  0.00  0.00    +0.024 A 
ATOM     17  C14 UNL     1      18.281  11.073  19.236  0.00  0.00    +0.014 A 
ATOM     18  C15 UNL     1      18.868  11.838  20.239  0.00  0.00    +0.028 A 
ATOM     19  C16 UNL     1      18.868  11.442  21.558  0.00  0.00    +0.138 A 
ATOM     20  C17 UNL     1      18.269  10.251  21.958  0.00  0.00    +0.070 A 
ATOM     21  O3  UNL     1      19.496  12.317  22.319  0.00  0.00    -0.455 OA
ATOM     22  C18 UNL     1      19.908  13.281  21.520  0.00  0.00    +0.136 A 
ATOM     23  C19 UNL     1      20.622  14.425  21.869  0.00  0.00    +0.047 A 
ATOM     24  C20 UNL     1      20.964  15.326  20.842  0.00  0.00    +0.004 A 
ATOM     25  C21 UNL     1      20.588  15.068  19.504  0.00  0.00    +0.001 A 
ATOM     26  C22 UNL     1      19.867  13.906  19.175  0.00  0.00    +0.012 A 
ATOM     27  C23 UNL     1      19.544  13.033  20.213  0.00  0.00    +0.028 A 
ENDBRANCH  12  15
BRANCH   1  31
ATOM     28  C1  UNL     1      16.641  -1.176  19.237  0.00  0.00    +0.109 C 
ATOM     29  C2  UNL     1      16.183  -0.024  20.069  0.00  0.00    +0.214 C 
ATOM     30  O1  UNL     1      16.472   0.011  21.295  0.00  0.00    -0.276 OA
ATOM     31  N1  UNL     1      15.419   1.032  19.469  0.00  0.00    -0.285 N 
ATOM     32  H4  UNL     1      15.336   1.045  18.426  0.00  0.00    +0.155 HD
ENDBRANCH   1  31
TORSDOF 2
ENDMDL
MODEL 5
REMARK VINA RESULT:    -7.665     11.008     14.392
REMARK INTER + INTRA:          -8.697
REMARK INTER:                  -8.598
REMARK INTRA:                  -0.099
REMARK UNBOUND:                -0.135
REMARK  Name = /home/qwerty/github/datacon2025hack/step_04_hit_selection/docking/ligands/lig_598.pdb
REMARK  3 active torsions:
REMARK  status: ('A' for Active; 'I' for Inactive)
REMARK    1  A    between atoms: C1_1  and  C2_2
REMARK    2  A    between atoms: N1_4  and  C3_5
REMARK    3  A    between atoms: N3_16  and  C12_17
REMARK                            x       y       z     vdW  Elec       q    Type
REMARK                         _______ _______ _______ _____ _____    ______ ____
ROOT
ATOM      1  C3  UNL     1      15.763  -0.845  21.973  0.00  0.00    +0.037 A 
ATOM      2  C4  UNL     1      16.678  -0.961  20.914  0.00  0.00    +0.023 A 
ATOM      3  C5  UNL     1      16.546  -0.170  19.773  0.00  0.00    +0.002 A 
ATOM      4  C6  UNL     1      15.510   0.759  19.682  0.00  0.00    +0.005 A 
ATOM      5  C7  UNL     1      14.581   0.894  20.723  0.00  0.00    -0.025 A 
ATOM      6  C8  UNL     1      14.693   0.077  21.870  0.00  0.00    -0.020 A 
ATOM      7  C9  UNL     1      13.684   0.229  22.978  0.00  0.00    +0.056 C 
ATOM      8  C10 UNL     1      12.323   0.620  22.414  0.00  0.00    +0.114 C 
ATOM      9  N2  UNL     1      12.437   1.839  21.603  0.00  0.00    -0.281 N 
ATOM     10  C11 UNL     1      11.395   2.842  21.659  0.00  0.00    +0.307 C 
ATOM     11  O2  UNL     1      10.371   2.641  22.370  0.00  0.00    -0.252 OA
ATOM     12  N3  UNL     1      11.489   4.055  20.890  0.00  0.00    -0.269 N 
ATOM     13  C24 UNL     1      13.522   1.970  20.614  0.00  0.00    +0.144 C 
ATOM     14  H12 UNL     1      12.037   4.044  20.002  0.00  0.00    +0.156 HD
ENDROOT
BRANCH  12  15
ATOM     15  C12 UNL     1      10.757   5.255  21.197  0.00  0.00    +0.038 A 
ATOM     16  C13 UNL     1      10.439   6.157  20.148  0.00  0.00    +0.024 A 
ATOM     17  C14 UNL     1       9.743   7.351  20.407  0.00  0.00    +0.014 A 
ATOM     18  C15 UNL     1       9.393   7.620  21.726  0.00  0.00    +0.028 A 
ATOM     19  C16 UNL     1       9.711   6.765  22.758  0.00  0.00    +0.138 A 
ATOM     20  C17 UNL     1      10.399   5.577  22.530  0.00  0.00    +0.070 A 
ATOM     21  O3  UNL     1       9.293   7.238  23.916  0.00  0.00    -0.455 OA
ATOM     22  C18 UNL     1       8.704   8.389  23.660  0.00  0.00    +0.136 A 
ATOM     23  C19 UNL     1       8.109   9.258  24.571  0.00  0.00    +0.047 A 
ATOM     24  C20 UNL     1       7.539  10.445  24.072  0.00  0.00    +0.004 A 
ATOM     25  C21 UNL     1       7.575  10.735  22.689  0.00  0.00    +0.001 A 
ATOM     26  C22 UNL     1       8.183   9.842  21.787  0.00  0.00    +0.012 A 
ATOM     27  C23 UNL     1       8.738   8.676  22.311  0.00  0.00    +0.028 A 
ENDBRANCH  12  15
BRANCH   1  31
ATOM     28  C1  UNL     1      16.815  -1.940  25.540  0.00  0.00    +0.109 C 
ATOM     29  C2  UNL     1      16.805  -1.178  24.256  0.00  0.00    +0.214 C 
ATOM     30  O1  UNL     1      17.540  -0.162  24.131  0.00  0.00    -0.276 OA
ATOM     31  N1  UNL     1      15.962  -1.607  23.177  0.00  0.00    -0.285 N 
ATOM     32  H4  UNL     1      15.491  -2.538  23.263  0.00  0.00    +0.155 HD
ENDBRANCH   1  31
TORSDOF 2
ENDMDL
MODEL 6
REMARK VINA RESULT:    -7.648     16.095     20.311
REMARK INTER + INTRA:          -8.677
REMARK INTER:                  -8.220
REMARK INTRA:                  -0.458
REMARK UNBOUND:                -0.135
REMARK  Name = /home/qwerty/github/datacon2025hack/step_04_hit_selection/docking/ligands/lig_598.pdb
REMARK  3 active torsions:
REMARK  status: ('A' for Active; 'I' for Inactive)
REMARK    1  A    between atoms: C1_1  and  C2_2
REMARK    2  A    between atoms: N1_4  and  C3_5
REMARK    3  A    between atoms: N3_16  and  C12_17
REMARK                            x       y       z     vdW  Elec       q    Type
REMARK                         _______ _______ _______ _____ _____    ______ ____
ROOT
ATOM      1  C3  UNL     1       7.228  -1.007  33.392  0.00  0.00    +0.037 A 
ATOM      2  C4  UNL     1       7.955  -2.067  32.826  0.00  0.00    +0.023 A 
ATOM      3  C5  UNL     1       8.468  -1.964  31.534  0.00  0.00    +0.002 A 
ATOM      4  C6  UNL     1       8.278  -0.797  30.796  0.00  0.00    +0.005 A 
ATOM      5  C7  UNL     1       7.554   0.276  31.335  0.00  0.00    -0.025 A 
ATOM      6  C8  UNL     1       7.008   0.169  32.634  0.00  0.00    -0.020 A 
ATOM      7  C9  UNL     1       6.227   1.327  33.197  0.00  0.00    +0.056 C 
ATOM      8  C10 UNL     1       5.490   2.068  32.087  0.00  0.00    +0.114 C 
ATOM      9  N2  UNL     1       6.433   2.495  31.044  0.00  0.00    -0.281 N 
ATOM     10  C11 UNL     1       6.270   3.786  30.411  0.00  0.00    +0.307 C 
ATOM     11  O2  UNL     1       5.291   4.518  30.726  0.00  0.00    -0.252 OA
ATOM     12  N3  UNL     1       7.189   4.238  29.400  0.00  0.00    -0.269 N 
ATOM     13  C24 UNL     1       7.441   1.551  30.527  0.00  0.00    +0.144 C 
ATOM     14  H12 UNL     1       7.686   3.528  28.820  0.00  0.00    +0.156 HD
ENDROOT
BRANCH  12  15
ATOM     15  C12 UNL     1       7.365   5.621  29.041  0.00  0.00    +0.038 A 
ATOM     16  C13 UNL     1       7.084   6.029  27.710  0.00  0.00    +0.024 A 
ATOM     17  C14 UNL     1       7.261   7.366  27.311  0.00  0.00    +0.014 A 
ATOM     18  C15 UNL     1       7.735   8.265  28.262  0.00  0.00    +0.028 A 
ATOM     19  C16 UNL     1       8.031   7.881  29.551  0.00  0.00    +0.138 A 
ATOM     20  C17 UNL     1       7.863   6.565  29.973  0.00  0.00    +0.070 A 
ATOM     21  O3  UNL     1       8.478   8.898  30.262  0.00  0.00    -0.455 OA
ATOM     22  C18 UNL     1       8.479   9.944  29.460  0.00  0.00    +0.136 A 
ATOM     23  C19 UNL     1       8.873  11.245  29.762  0.00  0.00    +0.047 A 
ATOM     24  C20 UNL     1       8.794  12.210  28.741  0.00  0.00    +0.004 A 
ATOM     25  C21 UNL     1       8.328  11.860  27.453  0.00  0.00    +0.001 A 
ATOM     26  C22 UNL     1       7.936  10.539  27.170  0.00  0.00    +0.012 A 
ATOM     27  C23 UNL     1       8.025   9.605  28.201  0.00  0.00    +0.028 A 
ENDBRANCH  12  15
BRANCH   1  31
ATOM     28  C1  UNL     1       6.955  -0.628  37.241  0.00  0.00    +0.109 C 
ATOM     29  C2  UNL     1       7.564  -0.668  35.878  0.00  0.00    +0.214 C 
ATOM     30  O1  UNL     1       8.768  -0.326  35.726  0.00  0.00    -0.276 OA
ATOM     31  N1  UNL     1       6.779  -1.094  34.756  0.00  0.00    -0.285 N 
ATOM     32  H4  UNL     1       5.841  -1.517  34.947  0.00  0.00    +0.155 HD
ENDBRANCH   1  31
TORSDOF 2
ENDMDL
MODEL 7
REMARK VINA RESULT:    -7.457     10.919     12.152
REMARK INTER + INTRA:          -8.465
REMARK INTER:                  -8.261
REMARK INTRA:                  -0.204
REMARK UNBOUND:                -0.135
REMARK  Name = /home/qwerty/github/datacon2025hack/step_04_hit_selection/docking/ligands/lig_598.pdb
REMARK  3 active torsions:
REMARK  status: ('A' for Active; 'I' for Inactive)
REMARK    1  A    between atoms: C1_1  and  C2_2
REMARK    2  A    between atoms: N1_4  and  C3_5
REMARK    3  A    between atoms: N3_16  and  C12_17
REMARK                            x       y       z     vdW  Elec       q    Type
REMARK                         _______ _______ _______ _____ _____    ______ ____
ROOT
ATOM      1  C3  UNL     1       8.154   7.450  21.280  0.00  0.00    +0.037 A 
ATOM      2  C4  UNL     1       6.826   7.062  21.032  0.00  0.00    +0.023 A 
ATOM      3  C5  UNL     1       6.526   5.747  20.681  0.00  0.00    +0.002 A 
ATOM      4  C6  UNL     1       7.542   4.797  20.590  0.00  0.00    +0.005 A 
ATOM      5  C7  UNL     1       8.875   5.156  20.830  0.00  0.00    -0.025 A 
ATOM      6  C8  UNL     1       9.191   6.493  21.160  0.00  0.00    -0.020 A 
ATOM      7  C9  UNL     1      10.629   6.867  21.409  0.00  0.00    +0.056 C 
ATOM      8  C10 UNL     1      11.559   6.024  20.543  0.00  0.00    +0.114 C 
ATOM      9  N2  UNL     1      11.314   4.593  20.771  0.00  0.00    -0.281 N 
ATOM     10  C11 UNL     1      12.427   3.669  20.812  0.00  0.00    +0.307 C 
ATOM     11  O2  UNL     1      13.598   4.091  20.603  0.00  0.00    -0.252 OA
ATOM     12  N3  UNL     1      12.218   2.266  21.052  0.00  0.00    -0.269 N 
ATOM     13  C24 UNL     1       9.934   4.075  20.797  0.00  0.00    +0.144 C 
ATOM     14  H12 UNL     1      11.307   1.840  20.775  0.00  0.00    +0.156 HD
ENDROOT
BRANCH  12  15
ATOM     15  C12 UNL     1      13.244   1.375  21.528  0.00  0.00    +0.038 A 
ATOM     16  C13 UNL     1      14.383   1.138  20.713  0.00  0.00    +0.024 A 
ATOM     17  C14 UNL     1      15.400   0.260  21.129  0.00  0.00    +0.014 A 
ATOM     18  C15 UNL     1      15.240  -0.375  22.357  0.00  0.00    +0.028 A 
ATOM     19  C16 UNL     1      14.132  -0.171  23.149  0.00  0.00    +0.138 A 
ATOM     20  C17 UNL     1      13.112   0.693  22.762  0.00  0.00    +0.070 A 
ATOM     21  O3  UNL     1      14.194  -0.892  24.252  0.00  0.00    -0.455 OA
ATOM     22  C18 UNL     1      15.327  -1.565  24.196  0.00  0.00    +0.136 A 
ATOM     23  C19 UNL     1      15.828  -2.462  25.136  0.00  0.00    +0.047 A 
ATOM     24  C20 UNL     1      17.066  -3.074  24.866  0.00  0.00    +0.004 A 
ATOM     25  C21 UNL     1      17.771  -2.780  23.676  0.00  0.00    +0.001 A 
ATOM     26  C22 UNL     1      17.245  -1.871  22.741  0.00  0.00    +0.012 A 
ATOM     27  C23 UNL     1      16.017  -1.280  23.036  0.00  0.00    +0.028 A 
ENDBRANCH  12  15
BRANCH   1  31
ATOM     28  C1  UNL     1       8.990  10.531  23.478  0.00  0.00    +0.109 C 
ATOM     29  C2  UNL     1       8.516   9.165  23.106  0.00  0.00    +0.214 C 
ATOM     30  O1  UNL     1       8.186   8.354  24.012  0.00  0.00    -0.276 OA
ATOM     31  N1  UNL     1       8.437   8.789  21.724  0.00  0.00    -0.285 N 
ATOM     32  H4  UNL     1       8.566   9.536  21.003  0.00  0.00    +0.155 HD
ENDBRANCH   1  31
TORSDOF 2
ENDMDL
MODEL 8
REMARK VINA RESULT:    -7.454     13.951     16.743
REMARK INTER + INTRA:          -8.461
REMARK INTER:                  -8.339
REMARK INTRA:                  -0.122
REMARK UNBOUND:                -0.135
REMARK  Name = /home/qwerty/github/datacon2025hack/step_04_hit_selection/docking/ligands/lig_598.pdb
REMARK  3 active torsions:
REMARK  status: ('A' for Active; 'I' for Inactive)
REMARK    1  A    between atoms: C1_1  and  C2_2
REMARK    2  A    between atoms: N1_4  and  C3_5
REMARK    3  A    between atoms: N3_16  and  C12_17
REMARK                            x       y       z     vdW  Elec       q    Type
REMARK                         _______ _______ _______ _____ _____    ______ ____
ROOT
ATOM      1  C3  UNL     1      22.554   8.026  35.675  0.00  0.00    +0.037 A 
ATOM      2  C4  UNL     1      22.625   6.961  36.589  0.00  0.00    +0.023 A 
ATOM      3  C5  UNL     1      21.615   6.767  37.530  0.00  0.00    +0.002 A 
ATOM      4  C6  UNL     1      20.513   7.620  37.561  0.00  0.00    +0.005 A 
ATOM      5  C7  UNL     1      20.417   8.692  36.662  0.00  0.00    -0.025 A 
ATOM      6  C8  UNL     1      21.450   8.911  35.723  0.00  0.00    -0.020 A 
ATOM      7  C9  UNL     1      21.337  10.070  34.768  0.00  0.00    +0.056 C 
ATOM      8  C10 UNL     1      20.601  11.234  35.422  0.00  0.00    +0.114 C 
ATOM      9  N2  UNL     1      19.287  10.796  35.914  0.00  0.00    -0.281 N 
ATOM     10  C11 UNL     1      18.142  11.672  35.787  0.00  0.00    +0.307 C 
ATOM     11  O2  UNL     1      18.288  12.825  35.296  0.00  0.00    -0.252 OA
ATOM     12  N3  UNL     1      16.840  11.262  36.243  0.00  0.00    -0.269 N 
ATOM     13  C24 UNL     1      19.166   9.543  36.680  0.00  0.00    +0.144 C 
ATOM     14  H12 UNL     1      16.776  10.570  37.022  0.00  0.00    +0.156 HD
ENDROOT
BRANCH  12  15
ATOM     15  C12 UNL     1      15.610  11.853  35.785  0.00  0.00    +0.038 A 
ATOM     16  C13 UNL     1      15.511  12.275  34.433  0.00  0.00    +0.024 A 
ATOM     17  C14 UNL     1      14.335  12.876  33.948  0.00  0.00    +0.014 A 
ATOM     18  C15 UNL     1      13.285  13.053  34.844  0.00  0.00    +0.028 A 
ATOM     19  C16 UNL     1      13.373  12.667  36.163  0.00  0.00    +0.138 A 
ATOM     20  C17 UNL     1      14.524  12.070  36.668  0.00  0.00    +0.070 A 
ATOM     21  O3  UNL     1      12.265  12.951  36.819  0.00  0.00    -0.455 OA
ATOM     22  C18 UNL     1      11.450  13.516  35.950  0.00  0.00    +0.136 A 
ATOM     23  C19 UNL     1      10.161  13.990  36.180  0.00  0.00    +0.047 A 
ATOM     24  C20 UNL     1       9.468  14.566  35.098  0.00  0.00    +0.004 A 
ATOM     25  C21 UNL     1      10.072  14.654  33.823  0.00  0.00    +0.001 A 
ATOM     26  C22 UNL     1      11.375  14.169  33.614  0.00  0.00    +0.012 A 
ATOM     27  C23 UNL     1      12.035  13.605  34.704  0.00  0.00    +0.028 A 
ENDBRANCH  12  15
BRANCH   1  31
ATOM     28  C1  UNL     1      24.468   7.883  32.307  0.00  0.00    +0.109 C 
ATOM     29  C2  UNL     1      23.470   7.545  33.365  0.00  0.00    +0.214 C 
ATOM     30  O1  UNL     1      22.554   6.717  33.112  0.00  0.00    -0.276 OA
ATOM     31  N1  UNL     1      23.561   8.163  34.656  0.00  0.00    -0.285 N 
ATOM     32  H4  UNL     1      24.420   8.718  34.875  0.00  0.00    +0.155 HD
ENDBRANCH   1  31
TORSDOF 2
ENDMDL
MODEL 9
REMARK VINA RESULT:    -7.317      9.576     11.511
REMARK INTER + INTRA:          -8.308
REMARK INTER:                  -7.884
REMARK INTRA:                  -0.424
REMARK UNBOUND:                -0.135
REMARK  Name = /home/qwerty/github/datacon2025hack/step_04_hit_selection/docking/ligands/lig_598.pdb
REMARK  3 active torsions:
REMARK  status: ('A' for Active; 'I' for Inactive)
REMARK    1  A    between atoms: C1_1  and  C2_2
REMARK    2  A    between atoms: N1_4  and  C3_5
REMARK    3  A    between atoms: N3_16  and  C12_17
REMARK                            x       y       z     vdW  Elec       q    Type
REMARK                         _______ _______ _______ _____ _____    ______ ____
ROOT
ATOM      1  C3  UNL     1      22.095   7.433  34.050  0.00  0.00    +0.037 A 
ATOM      2  C4  UNL     1      22.674   8.634  33.605  0.00  0.00    +0.023 A 
ATOM      3  C5  UNL     1      23.060   8.784  32.274  0.00  0.00    +0.002 A 
ATOM      4  C6  UNL     1      22.858   7.746  31.365  0.00  0.00    +0.005 A 
ATOM      5  C7  UNL     1      22.285   6.537  31.782  0.00  0.00    -0.025 A 
ATOM      6  C8  UNL     1      21.915   6.367  33.135  0.00  0.00    -0.020 A 
ATOM      7  C9  UNL     1      21.306   5.060  33.570  0.00  0.00    +0.056 C 
ATOM      8  C10 UNL     1      21.876   3.905  32.755  0.00  0.00    +0.114 C 
ATOM      9  N2  UNL     1      21.687   4.151  31.318  0.00  0.00    -0.281 N 
ATOM     10  C11 UNL     1      21.333   3.055  30.441  0.00  0.00    +0.307 C 
ATOM     11  O2  UNL     1      21.236   1.887  30.908  0.00  0.00    -0.252 OA
ATOM     12  N3  UNL     1      21.123   3.270  29.033  0.00  0.00    -0.269 N 
ATOM     13  C24 UNL     1      22.012   5.469  30.744  0.00  0.00    +0.144 C 
ATOM     14  H12 UNL     1      21.619   4.060  28.567  0.00  0.00    +0.156 HD
ENDROOT
BRANCH  12  15
ATOM     15  C12 UNL     1      20.373   2.374  28.192  0.00  0.00    +0.038 A 
ATOM     16  C13 UNL     1      20.978   1.870  27.011  0.00  0.00    +0.024 A 
ATOM     17  C14 UNL     1      20.275   1.008  26.149  0.00  0.00    +0.014 A 
ATOM     18  C15 UNL     1      18.965   0.683  26.491  0.00  0.00    +0.028 A 
ATOM     19  C16 UNL     1      18.358   1.180  27.623  0.00  0.00    +0.138 A 
ATOM     20  C17 UNL     1      19.031   2.033  28.493  0.00  0.00    +0.070 A 
ATOM     21  O3  UNL     1      17.116   0.749  27.727  0.00  0.00    -0.455 OA
ATOM     22  C18 UNL     1      16.899  -0.025  26.682  0.00  0.00    +0.136 A 
ATOM     23  C19 UNL     1      15.728  -0.705  26.358  0.00  0.00    +0.047 A 
ATOM     24  C20 UNL     1      15.720  -1.476  25.180  0.00  0.00    +0.004 A 
ATOM     25  C21 UNL     1      16.869  -1.551  24.360  0.00  0.00    +0.001 A 
ATOM     26  C22 UNL     1      18.040  -0.855  24.707  0.00  0.00    +0.012 A 
ATOM     27  C23 UNL     1      18.019  -0.100  25.878  0.00  0.00    +0.028 A 
ENDBRANCH  12  15
BRANCH   1  31
ATOM     28  C1  UNL     1      21.937   7.028  37.902  0.00  0.00    +0.109 C 
ATOM     29  C2  UNL     1      22.460   6.942  36.506  0.00  0.00    +0.214 C 
ATOM     30  O1  UNL     1      23.635   6.533  36.308  0.00  0.00    -0.276 OA
ATOM     31  N1  UNL     1      21.624   7.325  35.405  0.00  0.00    -0.285 N 
ATOM     32  H4  UNL     1      20.612   7.506  35.598  0.00  0.00    +0.155 HD
ENDBRANCH   1  31
TORSDOF 2
ENDMDL
