REMARK  Name = /home/qwerty/github/datacon2025hack/step_04_hit_selection/docking/ligands/lig_481.pdb
REMARK  6 active torsions:
REMARK  status: ('A' for Active; 'I' for Inactive)
REMARK    1  A    between atoms: C1_1  and  O1_2
REMARK    2  A    between atoms: O1_2  and  C2_3
REMARK    3  A    between atoms: C4_5  and  C5_6
REMARK    4  A    between atoms: C6_8  and  C7_9
REMARK    5  A    between atoms: C14_20  and  O3_21
REMARK    6  A    between atoms: C15_22  and  O4_23
REMARK                            x       y       z     vdW  Elec       q    Type
REMARK                         _______ _______ _______ _____ _____    ______ ____
ROOT
ATOM      1  C5  UNL     1       0.101   0.336  -0.225  0.00  0.00    +0.259 A 
ATOM      2  N1  UNL     1      -1.080  -0.187   0.161  0.00  0.00    -0.187 NA
ATOM      3  C6  UNL     1      -1.955   0.667  -0.414  0.00  0.00    +0.203 A 
ATOM      4  N2  UNL     1      -1.336   1.645  -1.104  0.00  0.00    -0.056 NA
ATOM      5  O2  UNL     1      -0.068   1.406  -0.963  0.00  0.00    -0.332 OA
ENDROOT
BRANCH   3   6
ATOM      6  C7  UNL     1      -3.424   0.542  -0.298  0.00  0.00    +0.028 A 
ATOM      7  C8  UNL     1      -4.271   1.473  -0.927  0.00  0.00    +0.050 A 
ATOM      8  C9  UNL     1      -5.660   1.352  -0.816  0.00  0.00    +0.127 A 
ATOM      9  F1  UNL     1      -6.469   2.254  -1.425  0.00  0.00    -0.205 F 
ATOM     10  C10 UNL     1      -6.215   0.304  -0.078  0.00  0.00    +0.076 A 
ATOM     11  C11 UNL     1      -5.383  -0.626   0.550  0.00  0.00    +0.127 A 
ATOM     12  F2  UNL     1      -5.924  -1.643   1.266  0.00  0.00    -0.205 F 
ATOM     13  C12 UNL     1      -3.993  -0.510   0.442  0.00  0.00    +0.050 A 
ENDBRANCH   3   6
BRANCH   1  16
ATOM     14  C2  UNL     1       3.857  -0.136   0.028  0.00  0.00    +0.166 A 
ATOM     15  C3  UNL     1       2.596   0.391  -0.312  0.00  0.00    +0.063 A 
ATOM     16  C4  UNL     1       1.418  -0.226   0.138  0.00  0.00    +0.047 A 
ATOM     17  C13 UNL     1       1.507  -1.377   0.935  0.00  0.00    +0.062 A 
ATOM     18  C14 UNL     1       2.756  -1.909   1.279  0.00  0.00    +0.163 A 
ATOM     19  C15 UNL     1       3.931  -1.287   0.825  0.00  0.00    +0.201 A 
BRANCH  14  21
ATOM     20  C1  UNL     1       5.132   1.622  -1.216  0.00  0.00    +0.277 C 
ATOM     21  O1  UNL     1       5.055   0.455  -0.405  0.00  0.00    -0.491 OA
ENDBRANCH  14  21
BRANCH  18  22
ATOM     22  O3  UNL     1       2.834  -3.054   2.071  0.00  0.00    -0.503 OA
ATOM     23  H9  UNL     1       2.002  -3.522   2.412  0.00  0.00    +0.292 HD
ENDBRANCH  18  22
BRANCH  19  24
ATOM     24  O4  UNL     1       5.185  -1.802   1.157  0.00  0.00    -0.501 OA
ATOM     25  H10 UNL     1       5.294  -2.631   1.729  0.00  0.00    +0.292 HD
ENDBRANCH  19  24
ENDBRANCH   1  16
TORSDOF 5
