REMARK  Name = /home/qwerty/github/datacon2025hack/step_04_hit_selection/docking/ligands/lig_125.pdb
REMARK  7 active torsions:
REMARK  status: ('A' for Active; 'I' for Inactive)
REMARK    1  A    between atoms: C1_1  and  C2_2
REMARK    2  A    between atoms: C4_4  and  C5_5
REMARK    3  A    between atoms: C8_10  and  N2_11
REMARK    4  A    between atoms: C9_12  and  C10_14
REMARK    5  A    between atoms: C14_19  and  O3_20
REMARK    6  A    between atoms: C16_22  and  C17_23
REMARK    7  A    between atoms: N4_24  and  C18_25
REMARK                            x       y       z     vdW  Elec       q    Type
REMARK                         _______ _______ _______ _____ _____    ______ ____
ROOT
ATOM      1  C5  UNL     1      -1.749   1.370   1.133  0.00  0.00    +0.248 C 
ATOM      2  O1  UNL     1      -1.719   2.471   1.746  0.00  0.00    -0.270 OA
ATOM      3  N1  UNL     1      -0.629   0.472   1.230  0.00  0.00    -0.295 N 
ATOM      4  C6  UNL     1       0.035   0.267   2.525  0.00  0.00    +0.110 C 
ATOM      5  C7  UNL     1       1.553   0.331   2.343  0.00  0.00    +0.044 C 
ATOM      6  C8  UNL     1       2.070  -0.705   1.310  0.00  0.00    +0.105 C 
ATOM      7  C14 UNL     1       0.981  -1.195   0.320  0.00  0.00    +0.152 C 
ATOM      8  C15 UNL     1      -0.040  -0.088   0.002  0.00  0.00    +0.141 C 
ENDROOT
BRANCH   1  12
ATOM      9  C1  UNL     1      -5.717   1.878  -1.924  0.00  0.00    +0.063 C 
ATOM     10  C2  UNL     1      -4.670   1.271  -1.041  0.00  0.00    +0.016 A 
ATOM     11  C3  UNL     1      -3.656   1.976  -0.421  0.00  0.00    +0.035 A 
ATOM     12  C4  UNL     1      -2.921   1.051   0.296  0.00  0.00    +0.058 A 
ATOM     13  C16 UNL     1      -3.538  -0.182   0.111  0.00  0.00    +0.028 A 
ATOM     14  C17 UNL     1      -3.162  -1.476   0.777  0.00  0.00    +0.064 C 
ATOM     15  N4  UNL     1      -4.583  -0.044  -0.737  0.00  0.00    -0.350 N 
ATOM     16  C18 UNL     1      -5.521  -1.093  -1.139  0.00  0.00    +0.149 C 
ENDBRANCH   1  12
BRANCH   6  17
ATOM     17  N2  UNL     1       3.199  -0.137   0.564  0.00  0.00    -0.306 N 
ATOM     18  C9  UNL     1       4.348  -0.916   0.191  0.00  0.00    +0.246 C 
ATOM     19  O2  UNL     1       4.405  -2.140   0.490  0.00  0.00    -0.270 OA
ATOM     20  H10 UNL     1       3.076   0.810   0.141  0.00  0.00    +0.149 HD
BRANCH  18  21
ATOM     21  C10 UNL     1       5.471  -0.307  -0.548  0.00  0.00    +0.054 A 
ATOM     22  C11 UNL     1       6.585  -0.976  -1.023  0.00  0.00    +0.032 A 
ATOM     23  C12 UNL     1       7.377  -0.024  -1.633  0.00  0.00    +0.083 A 
ATOM     24  N3  UNL     1       6.795   1.185  -1.546  0.00  0.00    -0.366 N 
ATOM     25  C13 UNL     1       5.634   1.025  -0.886  0.00  0.00    +0.095 A 
ATOM     26  H13 UNL     1       7.176   2.083  -1.917  0.00  0.00    +0.165 HD
ENDBRANCH  18  21
ENDBRANCH   6  17
BRANCH   7  27
ATOM     27  O3  UNL     1       0.317  -2.306   0.871  0.00  0.00    -0.388 OA
ATOM     28  H16 UNL     1      -0.131  -2.777   0.120  0.00  0.00    +0.210 HD
ENDBRANCH   7  27
TORSDOF 4
