REMARK  Name = /home/qwerty/github/datacon2025hack/step_04_hit_selection/docking/ligands/lig_718.pdb
REMARK  5 active torsions:
REMARK  status: ('A' for Active; 'I' for Inactive)
REMARK    1  A    between atoms: C1_1  and  N1_2
REMARK    2  A    between atoms: N1_2  and  C2_3
REMARK    3  A    between atoms: N1_2  and  C17_22
REMARK    4  A    between atoms: C2_3  and  C3_4
REMARK    5  A    between atoms: C6_9  and  C7_10
REMARK                            x       y       z     vdW  Elec       q    Type
REMARK                         _______ _______ _______ _____ _____    ______ ____
ROOT
ATOM      1  C3  UNL     1       2.140  -1.083  -0.462  0.00  0.00    -0.015 A 
ATOM      2  C4  UNL     1       1.799  -1.534  -1.764  0.00  0.00    +0.118 A 
ATOM      3  N2  UNL     1       0.512  -1.446  -2.217  0.00  0.00    -0.237 NA
ATOM      4  C5  UNL     1      -0.438  -0.920  -1.406  0.00  0.00    +0.139 A 
ATOM      5  N3  UNL     1      -1.736  -0.765  -1.704  0.00  0.00    -0.339 N 
ATOM      6  C6  UNL     1      -2.296  -0.204  -0.601  0.00  0.00    +0.049 A 
ATOM      7  C14 UNL     1      -1.330  -0.008   0.395  0.00  0.00    +0.037 A 
ATOM      8  C15 UNL     1      -0.155  -0.473  -0.150  0.00  0.00    +0.020 A 
ATOM      9  C16 UNL     1       1.135  -0.536   0.363  0.00  0.00    +0.018 A 
ATOM     10  H7  UNL     1      -2.203  -1.046  -2.594  0.00  0.00    +0.167 HD
ENDROOT
BRANCH   6  11
ATOM     11  C7  UNL     1      -3.734   0.145  -0.484  0.00  0.00    +0.002 A 
ATOM     12  C8  UNL     1      -4.530   0.319  -1.649  0.00  0.00    +0.014 A 
ATOM     13  C9  UNL     1      -5.894   0.649  -1.545  0.00  0.00    +0.050 A 
ATOM     14  C10 UNL     1      -6.431   0.798  -0.272  0.00  0.00    +0.166 A 
ATOM     15  C11 UNL     1      -5.682   0.637   0.846  0.00  0.00    +0.167 A 
ATOM     16  C12 UNL     1      -4.331   0.311   0.790  0.00  0.00    +0.059 A 
ATOM     17  O1  UNL     1      -6.471   0.842   1.962  0.00  0.00    -0.453 OA
ATOM     18  C13 UNL     1      -7.798   1.154   1.515  0.00  0.00    +0.466 C 
ATOM     19  O2  UNL     1      -7.728   1.115   0.083  0.00  0.00    -0.453 OA
ENDBRANCH   6  11
BRANCH   1  20
ATOM     20  C2  UNL     1       3.560  -1.161   0.032  0.00  0.00    +0.121 C 
BRANCH  20  22
ATOM     21  C1  UNL     1       4.532   0.741  -1.164  0.00  0.00    +0.105 C 
ATOM     22  N1  UNL     1       4.138   0.193   0.147  0.00  0.00    -0.298 NA
BRANCH  22  23
ATOM     23  C17 UNL     1       5.152   0.264   1.233  0.00  0.00    +0.057 C 
ATOM     24  C18 UNL     1       6.362  -0.649   1.049  0.00  0.00    +0.020 C 
ATOM     25  C19 UNL     1       6.535   0.859   0.953  0.00  0.00    +0.020 C 
ENDBRANCH  22  23
ENDBRANCH  20  22
ENDBRANCH   1  20
TORSDOF 4
