MODEL 1
REMARK VINA RESULT:    -8.168      0.000      0.000
REMARK INTER + INTRA:         -12.929
REMARK INTER:                 -11.510
REMARK INTRA:                  -1.419
REMARK UNBOUND:                -1.419
REMARK  Name = /home/qwerty/github/datacon2025hack/step_04_hit_selection/docking/ligands/lig_355.pdb
REMARK  12 active torsions:
REMARK  status: ('A' for Active; 'I' for Inactive)
REMARK    1  A    between atoms: C1_1  and  C2_2
REMARK    2  A    between atoms: C10_10  and  N1_11
REMARK    3  A    between atoms: N2_14  and  C12_15
REMARK    4  A    between atoms: C15_18  and  C16_19
REMARK    5  A    between atoms: C17_20  and  C18_21
REMARK    6  A    between atoms: C19_23  and  C20_24
REMARK    7  A    between atoms: C22_27  and  C23_28
REMARK    8  A    between atoms: C23_28  and  N5_29
REMARK    9  A    between atoms: C26_32  and  N6_33
REMARK   10  A    between atoms: N6_33  and  C27_34
REMARK   11  A    between atoms: C27_34  and  C28_35
REMARK   12  A    between atoms: C27_34  and  C29_36
REMARK                            x       y       z     vdW  Elec       q    Type
REMARK                         _______ _______ _______ _____ _____    ______ ____
ROOT
ATOM      1  C12 UNL     1      17.153  -0.094  22.981  0.00  0.00    +0.035 A 
ATOM      2  C13 UNL     1      17.176  -1.244  22.182  0.00  0.00    +0.023 A 
ATOM      3  C14 UNL     1      16.753  -1.192  20.852  0.00  0.00    +0.006 A 
ATOM      4  C15 UNL     1      16.282   0.009  20.299  0.00  0.00    -0.041 A 
ATOM      5  C16 UNL     1      15.824   0.037  18.866  0.00  0.00    +0.044 C 
ATOM      6  C17 UNL     1      16.200   1.157  21.118  0.00  0.00    +0.005 A 
ATOM      7  C32 UNL     1      16.644   1.101  22.447  0.00  0.00    +0.033 A 
ENDROOT
BRANCH   6   8
ATOM      8  C18 UNL     1      15.620   2.417  20.616  0.00  0.00    +0.079 A 
ATOM      9  N3  UNL     1      16.458   3.398  20.191  0.00  0.00    -0.232 NA
ATOM     10  C19 UNL     1      15.980   4.583  19.730  0.00  0.00    +0.127 A 
ATOM     11  C20 UNL     1      16.927   5.625  19.232  0.00  0.00    +0.088 C 
ATOM     12  N4  UNL     1      14.640   4.796  19.669  0.00  0.00    -0.240 NA
ATOM     13  C21 UNL     1      13.761   3.850  20.085  0.00  0.00    +0.119 A 
ATOM     14  C22 UNL     1      14.225   2.622  20.574  0.00  0.00    +0.011 A 
BRANCH  14  15
ATOM     15  C23 UNL     1      13.250   1.584  21.074  0.00  0.00    +0.123 C 
BRANCH  15  16
ATOM     16  N5  UNL     1      12.393   2.173  22.127  0.00  0.00    -0.298 NA
ATOM     17  C24 UNL     1      13.169   2.672  23.280  0.00  0.00    +0.086 C 
ATOM     18  C25 UNL     1      13.806   1.530  24.090  0.00  0.00    +0.034 C 
ATOM     19  C26 UNL     1      12.880   0.295  24.195  0.00  0.00    +0.056 C 
ATOM     20  C30 UNL     1      11.406   0.647  23.907  0.00  0.00    +0.034 C 
ATOM     21  C31 UNL     1      11.257   1.293  22.513  0.00  0.00    +0.086 C 
BRANCH  19  22
ATOM     22  N6  UNL     1      13.069  -0.426  25.472  0.00  0.00    -0.311 NA
ATOM     23  H30 UNL     1      12.944   0.244  26.268  0.00  0.00    +0.122 HD
BRANCH  22  24
ATOM     24  C27 UNL     1      14.331  -1.190  25.601  0.00  0.00    +0.048 C 
ATOM     25  C28 UNL     1      15.083  -0.829  26.893  0.00  0.00    +0.023 C 
ATOM     26  C29 UNL     1      14.004  -2.683  25.585  0.00  0.00    +0.023 C 
ENDBRANCH  22  24
ENDBRANCH  19  22
ENDBRANCH  15  16
ENDBRANCH  14  15
ENDBRANCH   6   8
BRANCH   1  30
ATOM     27  N1  UNL     1      18.627   0.732  26.407  0.00  0.00    -0.292 N 
ATOM     28  C11 UNL     1      18.397   0.812  24.995  0.00  0.00    +0.304 C 
ATOM     29  O1  UNL     1      18.944   1.725  24.318  0.00  0.00    -0.252 OA
ATOM     30  N2  UNL     1      17.582  -0.178  24.351  0.00  0.00    -0.269 N 
ATOM     31  H12 UNL     1      18.161  -0.035  26.945  0.00  0.00    +0.151 HD
ATOM     32  H13 UNL     1      17.381  -1.059  24.878  0.00  0.00    +0.156 HD
BRANCH  27  42
ATOM     33  C1  UNL     1      20.210   0.457  32.695  0.00  0.00    +0.044 C 
ATOM     34  C2  UNL     1      19.976   0.743  31.241  0.00  0.00    -0.050 A 
ATOM     35  C3  UNL     1      18.736   1.260  30.808  0.00  0.00    +0.004 A 
ATOM     36  C4  UNL     1      18.530   1.567  29.455  0.00  0.00    +0.006 A 
ATOM     37  C5  UNL     1      19.577   1.365  28.551  0.00  0.00    -0.024 A 
ATOM     38  C6  UNL     1      20.791   0.883  28.970  0.00  0.00    -0.042 A 
ATOM     39  C7  UNL     1      21.019   0.564  30.311  0.00  0.00    +0.007 A 
ATOM     40  C8  UNL     1      21.759   0.766  27.856  0.00  0.00    +0.037 C 
ATOM     41  C9  UNL     1      21.014   1.367  26.649  0.00  0.00    +0.032 C 
ATOM     42  C10 UNL     1      19.557   1.636  27.091  0.00  0.00    +0.105 C 
ENDBRANCH  27  42
ENDBRANCH   1  30
TORSDOF 7
ENDMDL
MODEL 2
REMARK VINA RESULT:    -8.147      4.065      7.847
REMARK INTER + INTRA:         -12.900
REMARK INTER:                 -10.762
REMARK INTRA:                  -2.138
REMARK UNBOUND:                -1.419
REMARK  Name = /home/qwerty/github/datacon2025hack/step_04_hit_selection/docking/ligands/lig_355.pdb
REMARK  12 active torsions:
REMARK  status: ('A' for Active; 'I' for Inactive)
REMARK    1  A    between atoms: C1_1  and  C2_2
REMARK    2  A    between atoms: C10_10  and  N1_11
REMARK    3  A    between atoms: N2_14  and  C12_15
REMARK    4  A    between atoms: C15_18  and  C16_19
REMARK    5  A    between atoms: C17_20  and  C18_21
REMARK    6  A    between atoms: C19_23  and  C20_24
REMARK    7  A    between atoms: C22_27  and  C23_28
REMARK    8  A    between atoms: C23_28  and  N5_29
REMARK    9  A    between atoms: C26_32  and  N6_33
REMARK   10  A    between atoms: N6_33  and  C27_34
REMARK   11  A    between atoms: C27_34  and  C28_35
REMARK   12  A    between atoms: C27_34  and  C29_36
REMARK                            x       y       z     vdW  Elec       q    Type
REMARK                         _______ _______ _______ _____ _____    ______ ____
ROOT
ATOM      1  C12 UNL     1      10.652   2.168  22.226  0.00  0.00    +0.035 A 
ATOM      2  C13 UNL     1      10.382   1.745  23.533  0.00  0.00    +0.023 A 
ATOM      3  C14 UNL     1       9.450   2.426  24.320  0.00  0.00    +0.006 A 
ATOM      4  C15 UNL     1       8.784   3.556  23.821  0.00  0.00    -0.041 A 
ATOM      5  C16 UNL     1       7.791   4.277  24.693  0.00  0.00    +0.044 C 
ATOM      6  C17 UNL     1       9.097   4.023  22.525  0.00  0.00    +0.005 A 
ATOM      7  C32 UNL     1      10.020   3.322  21.734  0.00  0.00    +0.033 A 
ENDROOT
BRANCH   6   8
ATOM      8  C18 UNL     1       8.501   5.261  21.991  0.00  0.00    +0.079 A 
ATOM      9  N3  UNL     1       7.262   5.203  21.437  0.00  0.00    -0.232 NA
ATOM     10  C19 UNL     1       6.668   6.309  20.918  0.00  0.00    +0.127 A 
ATOM     11  C20 UNL     1       5.289   6.219  20.353  0.00  0.00    +0.088 C 
ATOM     12  N4  UNL     1       7.306   7.507  20.968  0.00  0.00    -0.240 NA
ATOM     13  C21 UNL     1       8.546   7.618  21.508  0.00  0.00    +0.119 A 
ATOM     14  C22 UNL     1       9.187   6.492  22.041  0.00  0.00    +0.011 A 
BRANCH  14  15
ATOM     15  C23 UNL     1      10.582   6.607  22.605  0.00  0.00    +0.123 C 
BRANCH  15  16
ATOM     16  N5  UNL     1      11.451   7.320  21.644  0.00  0.00    -0.298 NA
ATOM     17  C24 UNL     1      11.843   6.476  20.497  0.00  0.00    +0.086 C 
ATOM     18  C25 UNL     1      12.803   5.346  20.907  0.00  0.00    +0.034 C 
ATOM     19  C26 UNL     1      13.821   5.799  21.980  0.00  0.00    +0.056 C 
ATOM     20  C30 UNL     1      13.965   7.334  22.034  0.00  0.00    +0.034 C 
ATOM     21  C31 UNL     1      12.600   8.005  22.294  0.00  0.00    +0.086 C 
BRANCH  19  22
ATOM     22  N6  UNL     1      15.115   5.096  21.840  0.00  0.00    -0.311 NA
ATOM     23  H30 UNL     1      15.418   4.743  22.779  0.00  0.00    +0.122 HD
BRANCH  22  24
ATOM     24  C27 UNL     1      16.196   5.861  21.176  0.00  0.00    +0.048 C 
ATOM     25  C28 UNL     1      17.537   5.701  21.910  0.00  0.00    +0.023 C 
ATOM     26  C29 UNL     1      16.327   5.372  19.733  0.00  0.00    +0.023 C 
ENDBRANCH  22  24
ENDBRANCH  19  22
ENDBRANCH  15  16
ENDBRANCH  14  15
ENDBRANCH   6   8
BRANCH   1  30
ATOM     27  N1  UNL     1      13.919   0.659  20.943  0.00  0.00    -0.292 N 
ATOM     28  C11 UNL     1      13.040   1.537  21.659  0.00  0.00    +0.304 C 
ATOM     29  O1  UNL     1      13.517   2.401  22.444  0.00  0.00    -0.252 OA
ATOM     30  N2  UNL     1      11.625   1.457  21.440  0.00  0.00    -0.269 N 
ATOM     31  H12 UNL     1      13.498  -0.049  20.297  0.00  0.00    +0.151 HD
ATOM     32  H13 UNL     1      11.292   0.938  20.596  0.00  0.00    +0.156 HD
BRANCH  27  42
ATOM     33  C1  UNL     1      17.772  -2.679  24.959  0.00  0.00    +0.044 C 
ATOM     34  C2  UNL     1      17.094  -1.772  23.975  0.00  0.00    -0.050 A 
ATOM     35  C3  UNL     1      16.301  -0.696  24.428  0.00  0.00    +0.004 A 
ATOM     36  C4  UNL     1      15.700   0.178  23.510  0.00  0.00    +0.006 A 
ATOM     37  C5  UNL     1      15.914  -0.028  22.144  0.00  0.00    -0.024 A 
ATOM     38  C6  UNL     1      16.703  -1.059  21.699  0.00  0.00    -0.042 A 
ATOM     39  C7  UNL     1      17.307  -1.946  22.593  0.00  0.00    +0.007 A 
ATOM     40  C8  UNL     1      16.811  -1.079  20.223  0.00  0.00    +0.037 C 
ATOM     41  C9  UNL     1      16.056   0.186  19.774  0.00  0.00    +0.032 C 
ATOM     42  C10 UNL     1      15.377   0.788  21.026  0.00  0.00    +0.105 C 
ENDBRANCH  27  42
ENDBRANCH   1  30
TORSDOF 7
ENDMDL
MODEL 3
REMARK VINA RESULT:    -8.133      4.455      9.489
REMARK INTER + INTRA:         -12.880
REMARK INTER:                 -10.307
REMARK INTRA:                  -2.573
REMARK UNBOUND:                -1.419
REMARK  Name = /home/qwerty/github/datacon2025hack/step_04_hit_selection/docking/ligands/lig_355.pdb
REMARK  12 active torsions:
REMARK  status: ('A' for Active; 'I' for Inactive)
REMARK    1  A    between atoms: C1_1  and  C2_2
REMARK    2  A    between atoms: C10_10  and  N1_11
REMARK    3  A    between atoms: N2_14  and  C12_15
REMARK    4  A    between atoms: C15_18  and  C16_19
REMARK    5  A    between atoms: C17_20  and  C18_21
REMARK    6  A    between atoms: C19_23  and  C20_24
REMARK    7  A    between atoms: C22_27  and  C23_28
REMARK    8  A    between atoms: C23_28  and  N5_29
REMARK    9  A    between atoms: C26_32  and  N6_33
REMARK   10  A    between atoms: N6_33  and  C27_34
REMARK   11  A    between atoms: C27_34  and  C28_35
REMARK   12  A    between atoms: C27_34  and  C29_36
REMARK                            x       y       z     vdW  Elec       q    Type
REMARK                         _______ _______ _______ _____ _____    ______ ____
ROOT
ATOM      1  C12 UNL     1      14.465   4.408  21.133  0.00  0.00    +0.035 A 
ATOM      2  C13 UNL     1      14.993   3.998  19.903  0.00  0.00    +0.023 A 
ATOM      3  C14 UNL     1      15.533   2.718  19.754  0.00  0.00    +0.006 A 
ATOM      4  C15 UNL     1      15.573   1.830  20.839  0.00  0.00    -0.041 A 
ATOM      5  C16 UNL     1      16.169   0.459  20.656  0.00  0.00    +0.044 C 
ATOM      6  C17 UNL     1      15.097   2.259  22.098  0.00  0.00    +0.005 A 
ATOM      7  C32 UNL     1      14.539   3.539  22.234  0.00  0.00    +0.033 A 
ENDROOT
BRANCH   6   8
ATOM      8  C18 UNL     1      15.207   1.402  23.293  0.00  0.00    +0.079 A 
ATOM      9  N3  UNL     1      16.377   1.392  23.984  0.00  0.00    -0.232 NA
ATOM     10  C19 UNL     1      16.540   0.614  25.085  0.00  0.00    +0.127 A 
ATOM     11  C20 UNL     1      17.825   0.657  25.844  0.00  0.00    +0.088 C 
ATOM     12  N4  UNL     1      15.514  -0.159  25.526  0.00  0.00    -0.240 NA
ATOM     13  C21 UNL     1      14.326  -0.187  24.870  0.00  0.00    +0.119 A 
ATOM     14  C22 UNL     1      14.133   0.598  23.726  0.00  0.00    +0.011 A 
BRANCH  14  15
ATOM     15  C23 UNL     1      12.827   0.537  22.973  0.00  0.00    +0.123 C 
BRANCH  15  16
ATOM     16  N5  UNL     1      11.710   0.873  23.884  0.00  0.00    -0.298 NA
ATOM     17  C24 UNL     1      10.387   0.707  23.248  0.00  0.00    +0.086 C 
ATOM     18  C25 UNL     1      10.134   1.753  22.150  0.00  0.00    +0.034 C 
ATOM     19  C26 UNL     1      10.698   3.145  22.522  0.00  0.00    +0.056 C 
ATOM     20  C30 UNL     1      10.934   3.290  24.039  0.00  0.00    +0.034 C 
ATOM     21  C31 UNL     1      11.883   2.188  24.556  0.00  0.00    +0.086 C 
BRANCH  19  22
ATOM     22  N6  UNL     1       9.883   4.238  21.950  0.00  0.00    -0.311 NA
ATOM     23  H30 UNL     1      10.073   5.122  22.479  0.00  0.00    +0.122 HD
BRANCH  22  24
ATOM     24  C27 UNL     1       8.430   3.972  21.847  0.00  0.00    +0.048 C 
ATOM     25  C28 UNL     1       7.685   4.384  23.127  0.00  0.00    +0.023 C 
ATOM     26  C29 UNL     1       7.874   4.742  20.648  0.00  0.00    +0.023 C 
ENDBRANCH  22  24
ENDBRANCH  19  22
ENDBRANCH  15  16
ENDBRANCH  14  15
ENDBRANCH   6   8
BRANCH   1  30
ATOM     27  N1  UNL     1      12.131   7.431  21.041  0.00  0.00    -0.292 N 
ATOM     28  C11 UNL     1      12.666   6.143  20.711  0.00  0.00    +0.304 C 
ATOM     29  O1  UNL     1      12.050   5.392  19.906  0.00  0.00    -0.252 OA
ATOM     30  N2  UNL     1      13.926   5.735  21.263  0.00  0.00    -0.269 N 
ATOM     31  H12 UNL     1      12.662   8.034  21.712  0.00  0.00    +0.151 HD
ATOM     32  H13 UNL     1      14.531   6.473  21.691  0.00  0.00    +0.156 HD
BRANCH  27  42
ATOM     33  C1  UNL     1       7.207  10.341  24.107  0.00  0.00    +0.044 C 
ATOM     34  C2  UNL     1       8.191   9.676  23.191  0.00  0.00    -0.050 A 
ATOM     35  C3  UNL     1       8.375   8.277  23.240  0.00  0.00    +0.004 A 
ATOM     36  C4  UNL     1       9.264   7.648  22.356  0.00  0.00    +0.006 A 
ATOM     37  C5  UNL     1       9.949   8.428  21.421  0.00  0.00    -0.024 A 
ATOM     38  C6  UNL     1       9.758   9.786  21.354  0.00  0.00    -0.042 A 
ATOM     39  C7  UNL     1       8.883  10.436  22.227  0.00  0.00    +0.007 A 
ATOM     40  C8  UNL     1      10.565  10.410  20.282  0.00  0.00    +0.037 C 
ATOM     41  C9  UNL     1      11.232   9.217  19.572  0.00  0.00    +0.032 C 
ATOM     42  C10 UNL     1      10.918   7.951  20.402  0.00  0.00    +0.105 C 
ENDBRANCH  27  42
ENDBRANCH   1  30
TORSDOF 7
ENDMDL
MODEL 4
REMARK VINA RESULT:    -8.110      6.567     12.654
REMARK INTER + INTRA:         -12.848
REMARK INTER:                 -10.433
REMARK INTRA:                  -2.415
REMARK UNBOUND:                -1.419
REMARK  Name = /home/qwerty/github/datacon2025hack/step_04_hit_selection/docking/ligands/lig_355.pdb
REMARK  12 active torsions:
REMARK  status: ('A' for Active; 'I' for Inactive)
REMARK    1  A    between atoms: C1_1  and  C2_2
REMARK    2  A    between atoms: C10_10  and  N1_11
REMARK    3  A    between atoms: N2_14  and  C12_15
REMARK    4  A    between atoms: C15_18  and  C16_19
REMARK    5  A    between atoms: C17_20  and  C18_21
REMARK    6  A    between atoms: C19_23  and  C20_24
REMARK    7  A    between atoms: C22_27  and  C23_28
REMARK    8  A    between atoms: C23_28  and  N5_29
REMARK    9  A    between atoms: C26_32  and  N6_33
REMARK   10  A    between atoms: N6_33  and  C27_34
REMARK   11  A    between atoms: C27_34  and  C28_35
REMARK   12  A    between atoms: C27_34  and  C29_36
REMARK                            x       y       z     vdW  Elec       q    Type
REMARK                         _______ _______ _______ _____ _____    ______ ____
ROOT
ATOM      1  C12 UNL     1      21.900   5.707  33.861  0.00  0.00    +0.035 A 
ATOM      2  C13 UNL     1      23.034   5.680  34.682  0.00  0.00    +0.023 A 
ATOM      3  C14 UNL     1      22.991   6.227  35.968  0.00  0.00    +0.006 A 
ATOM      4  C15 UNL     1      21.818   6.828  36.449  0.00  0.00    -0.041 A 
ATOM      5  C16 UNL     1      21.800   7.418  37.834  0.00  0.00    +0.044 C 
ATOM      6  C17 UNL     1      20.690   6.911  35.602  0.00  0.00    +0.005 A 
ATOM      7  C32 UNL     1      20.736   6.343  34.320  0.00  0.00    +0.033 A 
ENDROOT
BRANCH   6   8
ATOM      8  C18 UNL     1      19.467   7.620  36.021  0.00  0.00    +0.079 A 
ATOM      9  N3  UNL     1      19.394   8.964  35.833  0.00  0.00    -0.232 NA
ATOM     10  C19 UNL     1      18.297   9.671  36.210  0.00  0.00    +0.127 A 
ATOM     11  C20 UNL     1      18.232  11.139  35.951  0.00  0.00    +0.088 C 
ATOM     12  N4  UNL     1      17.238   9.031  36.769  0.00  0.00    -0.240 NA
ATOM     13  C21 UNL     1      17.262   7.690  36.982  0.00  0.00    +0.119 A 
ATOM     14  C22 UNL     1      18.384   6.937  36.612  0.00  0.00    +0.011 A 
BRANCH  14  15
ATOM     15  C23 UNL     1      18.428   5.454  36.884  0.00  0.00    +0.123 C 
BRANCH  15  16
ATOM     16  N5  UNL     1      17.318   4.783  36.172  0.00  0.00    -0.298 NA
ATOM     17  C24 UNL     1      17.041   3.429  36.695  0.00  0.00    +0.086 C 
ATOM     18  C25 UNL     1      18.175   2.440  36.377  0.00  0.00    +0.034 C 
ATOM     19  C26 UNL     1      18.779   2.669  34.971  0.00  0.00    +0.056 C 
ATOM     20  C30 UNL     1      17.831   3.470  34.054  0.00  0.00    +0.034 C 
ATOM     21  C31 UNL     1      17.465   4.827  34.692  0.00  0.00    +0.086 C 
BRANCH  19  22
ATOM     22  N6  UNL     1      19.250   1.406  34.362  0.00  0.00    -0.311 NA
ATOM     23  H30 UNL     1      20.194   1.561  33.934  0.00  0.00    +0.122 HD
BRANCH  22  24
ATOM     24  C27 UNL     1      18.320   0.766  33.404  0.00  0.00    +0.048 C 
ATOM     25  C28 UNL     1      19.071  -0.090  32.371  0.00  0.00    +0.023 C 
ATOM     26  C29 UNL     1      17.332  -0.102  34.184  0.00  0.00    +0.023 C 
ENDBRANCH  22  24
ENDBRANCH  19  22
ENDBRANCH  15  16
ENDBRANCH  14  15
ENDBRANCH   6   8
BRANCH   1  30
ATOM     27  N1  UNL     1      21.727   3.314  30.888  0.00  0.00    -0.292 N 
ATOM     28  C11 UNL     1      21.812   3.752  32.250  0.00  0.00    +0.304 C 
ATOM     29  O1  UNL     1      21.786   2.907  33.185  0.00  0.00    -0.252 OA
ATOM     30  N2  UNL     1      21.974   5.148  32.538  0.00  0.00    -0.269 N 
ATOM     31  H12 UNL     1      21.750   4.036  30.130  0.00  0.00    +0.151 HD
ATOM     32  H13 UNL     1      22.269   5.775  31.754  0.00  0.00    +0.156 HD
BRANCH  27  42
ATOM     33  C1  UNL     1      18.755   0.786  25.701  0.00  0.00    +0.044 C 
ATOM     34  C2  UNL     1      19.478   1.125  26.971  0.00  0.00    -0.050 A 
ATOM     35  C3  UNL     1      18.757   1.547  28.109  0.00  0.00    +0.004 A 
ATOM     36  C4  UNL     1      19.428   1.824  29.310  0.00  0.00    +0.006 A 
ATOM     37  C5  UNL     1      20.815   1.660  29.361  0.00  0.00    -0.024 A 
ATOM     38  C6  UNL     1      21.518   1.229  28.264  0.00  0.00    -0.042 A 
ATOM     39  C7  UNL     1      20.874   0.953  27.056  0.00  0.00    +0.007 A 
ATOM     40  C8  UNL     1      22.966   1.105  28.544  0.00  0.00    +0.037 C 
ATOM     41  C9  UNL     1      23.084   1.414  30.049  0.00  0.00    +0.032 C 
ATOM     42  C10 UNL     1      21.696   1.892  30.533  0.00  0.00    +0.105 C 
ENDBRANCH  27  42
ENDBRANCH   1  30
TORSDOF 7
ENDMDL
MODEL 5
REMARK VINA RESULT:    -8.045      8.159     13.547
REMARK INTER + INTRA:         -12.756
REMARK INTER:                 -11.142
REMARK INTRA:                  -1.614
REMARK UNBOUND:                -1.419
REMARK  Name = /home/qwerty/github/datacon2025hack/step_04_hit_selection/docking/ligands/lig_355.pdb
REMARK  12 active torsions:
REMARK  status: ('A' for Active; 'I' for Inactive)
REMARK    1  A    between atoms: C1_1  and  C2_2
REMARK    2  A    between atoms: C10_10  and  N1_11
REMARK    3  A    between atoms: N2_14  and  C12_15
REMARK    4  A    between atoms: C15_18  and  C16_19
REMARK    5  A    between atoms: C17_20  and  C18_21
REMARK    6  A    between atoms: C19_23  and  C20_24
REMARK    7  A    between atoms: C22_27  and  C23_28
REMARK    8  A    between atoms: C23_28  and  N5_29
REMARK    9  A    between atoms: C26_32  and  N6_33
REMARK   10  A    between atoms: N6_33  and  C27_34
REMARK   11  A    between atoms: C27_34  and  C28_35
REMARK   12  A    between atoms: C27_34  and  C29_36
REMARK                            x       y       z     vdW  Elec       q    Type
REMARK                         _______ _______ _______ _____ _____    ______ ____
ROOT
ATOM      1  C12 UNL     1      19.211   3.203  34.693  0.00  0.00    +0.035 A 
ATOM      2  C13 UNL     1      18.679   2.150  35.446  0.00  0.00    +0.023 A 
ATOM      3  C14 UNL     1      17.758   2.401  36.466  0.00  0.00    +0.006 A 
ATOM      4  C15 UNL     1      17.365   3.715  36.764  0.00  0.00    -0.041 A 
ATOM      5  C16 UNL     1      16.377   3.961  37.873  0.00  0.00    +0.044 C 
ATOM      6  C17 UNL     1      17.944   4.786  36.047  0.00  0.00    +0.005 A 
ATOM      7  C32 UNL     1      18.854   4.523  35.013  0.00  0.00    +0.033 A 
ENDROOT
BRANCH   6   8
ATOM      8  C18 UNL     1      17.642   6.189  36.388  0.00  0.00    +0.079 A 
ATOM      9  N3  UNL     1      16.484   6.737  35.933  0.00  0.00    -0.232 NA
ATOM     10  C19 UNL     1      16.159   8.027  36.205  0.00  0.00    +0.127 A 
ATOM     11  C20 UNL     1      14.861   8.585  35.724  0.00  0.00    +0.088 C 
ATOM     12  N4  UNL     1      16.989   8.789  36.963  0.00  0.00    -0.240 NA
ATOM     13  C21 UNL     1      18.158   8.291  37.439  0.00  0.00    +0.119 A 
ATOM     14  C22 UNL     1      18.524   6.967  37.165  0.00  0.00    +0.011 A 
BRANCH  14  15
ATOM     15  C23 UNL     1      19.843   6.424  37.660  0.00  0.00    +0.123 C 
BRANCH  15  16
ATOM     16  N5  UNL     1      20.893   7.456  37.512  0.00  0.00    -0.298 NA
ATOM     17  C24 UNL     1      21.008   7.957  36.127  0.00  0.00    +0.086 C 
ATOM     18  C25 UNL     1      21.570   6.892  35.169  0.00  0.00    +0.034 C 
ATOM     19  C26 UNL     1      22.676   6.033  35.827  0.00  0.00    +0.056 C 
ATOM     20  C30 UNL     1      23.286   6.720  37.065  0.00  0.00    +0.034 C 
ATOM     21  C31 UNL     1      22.195   7.051  38.106  0.00  0.00    +0.086 C 
BRANCH  19  22
ATOM     22  N6  UNL     1      23.689   5.595  34.843  0.00  0.00    -0.311 NA
ATOM     23  H30 UNL     1      24.642   5.852  35.193  0.00  0.00    +0.122 HD
BRANCH  22  24
ATOM     24  C27 UNL     1      23.480   6.059  33.452  0.00  0.00    +0.048 C 
ATOM     25  C28 UNL     1      24.738   6.737  32.886  0.00  0.00    +0.023 C 
ATOM     26  C29 UNL     1      23.097   4.858  32.587  0.00  0.00    +0.023 C 
ENDBRANCH  22  24
ENDBRANCH  19  22
ENDBRANCH  15  16
ENDBRANCH  14  15
ENDBRANCH   6   8
BRANCH   1  30
ATOM     27  N1  UNL     1      20.814   2.333  31.336  0.00  0.00    -0.292 N 
ATOM     28  C11 UNL     1      19.814   2.421  32.359  0.00  0.00    +0.304 C 
ATOM     29  O1  UNL     1      18.640   2.021  32.127  0.00  0.00    -0.252 OA
ATOM     30  N2  UNL     1      20.167   2.918  33.657  0.00  0.00    -0.269 N 
ATOM     31  H12 UNL     1      21.780   2.672  31.554  0.00  0.00    +0.151 HD
ATOM     32  H13 UNL     1      21.184   2.974  33.896  0.00  0.00    +0.156 HD
BRANCH  27  42
ATOM     33  C1  UNL     1      22.840   4.556  25.585  0.00  0.00    +0.044 C 
ATOM     34  C2  UNL     1      22.233   3.874  26.775  0.00  0.00    -0.050 A 
ATOM     35  C3  UNL     1      21.160   4.474  27.468  0.00  0.00    +0.004 A 
ATOM     36  C4  UNL     1      20.565   3.819  28.557  0.00  0.00    +0.006 A 
ATOM     37  C5  UNL     1      21.042   2.560  28.929  0.00  0.00    -0.024 A 
ATOM     38  C6  UNL     1      22.070   1.962  28.245  0.00  0.00    -0.042 A 
ATOM     39  C7  UNL     1      22.684   2.596  27.162  0.00  0.00    +0.007 A 
ATOM     40  C8  UNL     1      22.402   0.627  28.792  0.00  0.00    +0.037 C 
ATOM     41  C9  UNL     1      21.337   0.394  29.880  0.00  0.00    +0.032 C 
ATOM     42  C10 UNL     1      20.541   1.709  30.038  0.00  0.00    +0.105 C 
ENDBRANCH  27  42
ENDBRANCH   1  30
TORSDOF 7
ENDMDL
MODEL 6
REMARK VINA RESULT:    -7.883      7.729     13.783
REMARK INTER + INTRA:         -12.527
REMARK INTER:                 -10.682
REMARK INTRA:                  -1.845
REMARK UNBOUND:                -1.419
REMARK  Name = /home/qwerty/github/datacon2025hack/step_04_hit_selection/docking/ligands/lig_355.pdb
REMARK  12 active torsions:
REMARK  status: ('A' for Active; 'I' for Inactive)
REMARK    1  A    between atoms: C1_1  and  C2_2
REMARK    2  A    between atoms: C10_10  and  N1_11
REMARK    3  A    between atoms: N2_14  and  C12_15
REMARK    4  A    between atoms: C15_18  and  C16_19
REMARK    5  A    between atoms: C17_20  and  C18_21
REMARK    6  A    between atoms: C19_23  and  C20_24
REMARK    7  A    between atoms: C22_27  and  C23_28
REMARK    8  A    between atoms: C23_28  and  N5_29
REMARK    9  A    between atoms: C26_32  and  N6_33
REMARK   10  A    between atoms: N6_33  and  C27_34
REMARK   11  A    between atoms: C27_34  and  C28_35
REMARK   12  A    between atoms: C27_34  and  C29_36
REMARK                            x       y       z     vdW  Elec       q    Type
REMARK                         _______ _______ _______ _____ _____    ______ ____
ROOT
ATOM      1  C12 UNL     1      21.768   5.570  33.977  0.00  0.00    +0.035 A 
ATOM      2  C13 UNL     1      22.997   5.801  34.607  0.00  0.00    +0.023 A 
ATOM      3  C14 UNL     1      23.043   6.308  35.908  0.00  0.00    +0.006 A 
ATOM      4  C15 UNL     1      21.859   6.610  36.598  0.00  0.00    -0.041 A 
ATOM      5  C16 UNL     1      21.935   7.163  37.996  0.00  0.00    +0.044 C 
ATOM      6  C17 UNL     1      20.618   6.436  35.946  0.00  0.00    +0.005 A 
ATOM      7  C32 UNL     1      20.580   5.909  34.646  0.00  0.00    +0.033 A 
ENDROOT
BRANCH   6   8
ATOM      8  C18 UNL     1      19.351   6.832  36.588  0.00  0.00    +0.079 A 
ATOM      9  N3  UNL     1      18.589   5.873  37.176  0.00  0.00    -0.232 NA
ATOM     10  C19 UNL     1      17.408   6.177  37.773  0.00  0.00    +0.127 A 
ATOM     11  C20 UNL     1      16.615   5.106  38.445  0.00  0.00    +0.088 C 
ATOM     12  N4  UNL     1      16.978   7.465  37.807  0.00  0.00    -0.240 NA
ATOM     13  C21 UNL     1      17.700   8.460  37.232  0.00  0.00    +0.119 A 
ATOM     14  C22 UNL     1      18.918   8.174  36.601  0.00  0.00    +0.011 A 
BRANCH  14  15
ATOM     15  C23 UNL     1      19.701   9.273  35.926  0.00  0.00    +0.123 C 
BRANCH  15  16
ATOM     16  N5  UNL     1      18.873   9.901  34.873  0.00  0.00    -0.298 NA
ATOM     17  C24 UNL     1      18.760   9.063  33.662  0.00  0.00    +0.086 C 
ATOM     18  C25 UNL     1      20.092   8.960  32.900  0.00  0.00    +0.034 C 
ATOM     19  C26 UNL     1      20.879  10.292  32.907  0.00  0.00    +0.056 C 
ATOM     20  C30 UNL     1      19.976  11.499  33.230  0.00  0.00    +0.034 C 
ATOM     21  C31 UNL     1      19.264  11.307  34.586  0.00  0.00    +0.086 C 
BRANCH  19  22
ATOM     22  N6  UNL     1      21.670  10.469  31.670  0.00  0.00    -0.311 NA
ATOM     23  H30 UNL     1      21.031  10.419  30.842  0.00  0.00    +0.122 HD
BRANCH  22  24
ATOM     24  C27 UNL     1      22.831   9.563  31.512  0.00  0.00    +0.048 C 
ATOM     25  C28 UNL     1      23.891  10.158  30.572  0.00  0.00    +0.023 C 
ATOM     26  C29 UNL     1      23.440   9.301  32.890  0.00  0.00    +0.023 C 
ENDBRANCH  22  24
ENDBRANCH  19  22
ENDBRANCH  15  16
ENDBRANCH  14  15
ENDBRANCH   6   8
BRANCH   1  30
ATOM     27  N1  UNL     1      21.487   3.260  30.947  0.00  0.00    -0.292 N 
ATOM     28  C11 UNL     1      21.679   3.664  32.309  0.00  0.00    +0.304 C 
ATOM     29  O1  UNL     1      21.827   2.793  33.209  0.00  0.00    -0.252 OA
ATOM     30  N2  UNL     1      21.748   5.060  32.633  0.00  0.00    -0.269 N 
ATOM     31  H12 UNL     1      21.366   4.003  30.220  0.00  0.00    +0.151 HD
ATOM     32  H13 UNL     1      21.901   5.734  31.847  0.00  0.00    +0.156 HD
BRANCH  27  42
ATOM     33  C1  UNL     1      18.842   0.777  25.566  0.00  0.00    +0.044 C 
ATOM     34  C2  UNL     1      19.499   1.105  26.874  0.00  0.00    -0.050 A 
ATOM     35  C3  UNL     1      18.716   1.449  27.997  0.00  0.00    +0.004 A 
ATOM     36  C4  UNL     1      19.327   1.715  29.232  0.00  0.00    +0.006 A 
ATOM     37  C5  UNL     1      20.718   1.620  29.330  0.00  0.00    -0.024 A 
ATOM     38  C6  UNL     1      21.482   1.265  28.247  0.00  0.00    -0.042 A 
ATOM     39  C7  UNL     1      20.898   1.001  27.006  0.00  0.00    +0.007 A 
ATOM     40  C8  UNL     1      22.923   1.204  28.577  0.00  0.00    +0.037 C 
ATOM     41  C9  UNL     1      22.970   1.463  30.095  0.00  0.00    +0.032 C 
ATOM     42  C10 UNL     1      21.543   1.853  30.543  0.00  0.00    +0.105 C 
ENDBRANCH  27  42
ENDBRANCH   1  30
TORSDOF 7
ENDMDL
MODEL 7
REMARK VINA RESULT:    -7.775      2.232      4.679
REMARK INTER + INTRA:         -12.375
REMARK INTER:                 -10.113
REMARK INTRA:                  -2.262
REMARK UNBOUND:                -1.419
REMARK  Name = /home/qwerty/github/datacon2025hack/step_04_hit_selection/docking/ligands/lig_355.pdb
REMARK  12 active torsions:
REMARK  status: ('A' for Active; 'I' for Inactive)
REMARK    1  A    between atoms: C1_1  and  C2_2
REMARK    2  A    between atoms: C10_10  and  N1_11
REMARK    3  A    between atoms: N2_14  and  C12_15
REMARK    4  A    between atoms: C15_18  and  C16_19
REMARK    5  A    between atoms: C17_20  and  C18_21
REMARK    6  A    between atoms: C19_23  and  C20_24
REMARK    7  A    between atoms: C22_27  and  C23_28
REMARK    8  A    between atoms: C23_28  and  N5_29
REMARK    9  A    between atoms: C26_32  and  N6_33
REMARK   10  A    between atoms: N6_33  and  C27_34
REMARK   11  A    between atoms: C27_34  and  C28_35
REMARK   12  A    between atoms: C27_34  and  C29_36
REMARK                            x       y       z     vdW  Elec       q    Type
REMARK                         _______ _______ _______ _____ _____    ______ ____
ROOT
ATOM      1  C12 UNL     1      17.298   0.164  24.231  0.00  0.00    +0.035 A 
ATOM      2  C13 UNL     1      17.636  -0.968  23.478  0.00  0.00    +0.023 A 
ATOM      3  C14 UNL     1      17.281  -1.054  22.129  0.00  0.00    +0.006 A 
ATOM      4  C15 UNL     1      16.565  -0.017  21.512  0.00  0.00    -0.041 A 
ATOM      5  C16 UNL     1      16.187  -0.138  20.060  0.00  0.00    +0.044 C 
ATOM      6  C17 UNL     1      16.169   1.099  22.282  0.00  0.00    +0.005 A 
ATOM      7  C32 UNL     1      16.546   1.187  23.630  0.00  0.00    +0.033 A 
ENDROOT
BRANCH   6   8
ATOM      8  C18 UNL     1      15.331   2.168  21.708  0.00  0.00    +0.079 A 
ATOM      9  N3  UNL     1      13.980   2.016  21.719  0.00  0.00    -0.232 NA
ATOM     10  C19 UNL     1      13.159   2.962  21.195  0.00  0.00    +0.127 A 
ATOM     11  C20 UNL     1      11.679   2.782  21.260  0.00  0.00    +0.088 C 
ATOM     12  N4  UNL     1      13.684   4.096  20.664  0.00  0.00    -0.240 NA
ATOM     13  C21 UNL     1      15.027   4.296  20.626  0.00  0.00    +0.119 A 
ATOM     14  C22 UNL     1      15.898   3.333  21.150  0.00  0.00    +0.011 A 
BRANCH  14  15
ATOM     15  C23 UNL     1      17.391   3.535  21.072  0.00  0.00    +0.123 C 
BRANCH  15  16
ATOM     16  N5  UNL     1      17.776   4.721  21.868  0.00  0.00    -0.298 NA
ATOM     17  C24 UNL     1      19.053   5.316  21.423  0.00  0.00    +0.086 C 
ATOM     18  C25 UNL     1      20.256   4.409  21.731  0.00  0.00    +0.034 C 
ATOM     19  C26 UNL     1      20.117   3.690  23.093  0.00  0.00    +0.056 C 
ATOM     20  C30 UNL     1      19.096   4.385  24.017  0.00  0.00    +0.034 C 
ATOM     21  C31 UNL     1      17.714   4.482  23.335  0.00  0.00    +0.086 C 
BRANCH  19  22
ATOM     22  N6  UNL     1      21.431   3.471  23.736  0.00  0.00    -0.311 NA
ATOM     23  H30 UNL     1      21.538   2.453  23.962  0.00  0.00    +0.122 HD
BRANCH  22  24
ATOM     24  C27 UNL     1      21.721   4.320  24.914  0.00  0.00    +0.048 C 
ATOM     25  C28 UNL     1      22.500   3.547  25.991  0.00  0.00    +0.023 C 
ATOM     26  C29 UNL     1      22.529   5.535  24.455  0.00  0.00    +0.023 C 
ENDBRANCH  22  24
ENDBRANCH  19  22
ENDBRANCH  15  16
ENDBRANCH  14  15
ENDBRANCH   6   8
BRANCH   1  30
ATOM     27  N1  UNL     1      19.045   1.023  27.517  0.00  0.00    -0.292 N 
ATOM     28  C11 UNL     1      18.853   0.862  26.106  0.00  0.00    +0.304 C 
ATOM     29  O1  UNL     1      19.747   1.243  25.302  0.00  0.00    -0.252 OA
ATOM     30  N2  UNL     1      17.664   0.223  25.620  0.00  0.00    -0.269 N 
ATOM     31  H12 UNL     1      18.288   0.698  28.163  0.00  0.00    +0.151 HD
ATOM     32  H13 UNL     1      17.090  -0.321  26.304  0.00  0.00    +0.156 HD
BRANCH  27  42
ATOM     33  C1  UNL     1      20.198   2.153  33.803  0.00  0.00    +0.044 C 
ATOM     34  C2  UNL     1      20.158   2.010  32.311  0.00  0.00    -0.050 A 
ATOM     35  C3  UNL     1      19.358   2.875  31.534  0.00  0.00    +0.004 A 
ATOM     36  C4  UNL     1      19.351   2.769  30.135  0.00  0.00    +0.006 A 
ATOM     37  C5  UNL     1      20.160   1.804  29.528  0.00  0.00    -0.024 A 
ATOM     38  C6  UNL     1      20.957   0.975  30.277  0.00  0.00    -0.042 A 
ATOM     39  C7  UNL     1      20.976   1.057  31.671  0.00  0.00    +0.007 A 
ATOM     40  C8  UNL     1      21.743   0.047  29.434  0.00  0.00    +0.037 C 
ATOM     41  C9  UNL     1      21.420   0.486  27.993  0.00  0.00    +0.032 C 
ATOM     42  C10 UNL     1      20.297   1.545  28.073  0.00  0.00    +0.105 C 
ENDBRANCH  27  42
ENDBRANCH   1  30
TORSDOF 7
ENDMDL
MODEL 8
REMARK VINA RESULT:    -7.751     10.931     15.122
REMARK INTER + INTRA:         -12.341
REMARK INTER:                 -10.952
REMARK INTRA:                  -1.389
REMARK UNBOUND:                -1.419
REMARK  Name = /home/qwerty/github/datacon2025hack/step_04_hit_selection/docking/ligands/lig_355.pdb
REMARK  12 active torsions:
REMARK  status: ('A' for Active; 'I' for Inactive)
REMARK    1  A    between atoms: C1_1  and  C2_2
REMARK    2  A    between atoms: C10_10  and  N1_11
REMARK    3  A    between atoms: N2_14  and  C12_15
REMARK    4  A    between atoms: C15_18  and  C16_19
REMARK    5  A    between atoms: C17_20  and  C18_21
REMARK    6  A    between atoms: C19_23  and  C20_24
REMARK    7  A    between atoms: C22_27  and  C23_28
REMARK    8  A    between atoms: C23_28  and  N5_29
REMARK    9  A    between atoms: C26_32  and  N6_33
REMARK   10  A    between atoms: N6_33  and  C27_34
REMARK   11  A    between atoms: C27_34  and  C28_35
REMARK   12  A    between atoms: C27_34  and  C29_36
REMARK                            x       y       z     vdW  Elec       q    Type
REMARK                         _______ _______ _______ _____ _____    ______ ____
ROOT
ATOM      1  C12 UNL     1      19.562   8.592  36.153  0.00  0.00    +0.035 A 
ATOM      2  C13 UNL     1      19.816   8.134  37.451  0.00  0.00    +0.023 A 
ATOM      3  C14 UNL     1      21.018   7.489  37.754  0.00  0.00    +0.006 A 
ATOM      4  C15 UNL     1      21.983   7.275  36.757  0.00  0.00    -0.041 A 
ATOM      5  C16 UNL     1      23.267   6.570  37.107  0.00  0.00    +0.044 C 
ATOM      6  C17 UNL     1      21.707   7.681  35.433  0.00  0.00    +0.005 A 
ATOM      7  C32 UNL     1      20.505   8.344  35.142  0.00  0.00    +0.033 A 
ENDROOT
BRANCH   6   8
ATOM      8  C18 UNL     1      22.642   7.390  34.331  0.00  0.00    +0.079 A 
ATOM      9  N3  UNL     1      23.463   8.380  33.892  0.00  0.00    -0.232 NA
ATOM     10  C19 UNL     1      24.336   8.174  32.872  0.00  0.00    +0.127 A 
ATOM     11  C20 UNL     1      25.252   9.271  32.442  0.00  0.00    +0.088 C 
ATOM     12  N4  UNL     1      24.415   6.952  32.285  0.00  0.00    -0.240 NA
ATOM     13  C21 UNL     1      23.615   5.930  32.684  0.00  0.00    +0.119 A 
ATOM     14  C22 UNL     1      22.698   6.117  33.726  0.00  0.00    +0.011 A 
BRANCH  14  15
ATOM     15  C23 UNL     1      21.781   4.994  34.144  0.00  0.00    +0.123 C 
BRANCH  15  16
ATOM     16  N5  UNL     1      21.185   4.365  32.944  0.00  0.00    -0.298 NA
ATOM     17  C24 UNL     1      19.715   4.504  32.899  0.00  0.00    +0.086 C 
ATOM     18  C25 UNL     1      19.019   3.671  33.987  0.00  0.00    +0.034 C 
ATOM     19  C26 UNL     1      19.708   2.304  34.213  0.00  0.00    +0.056 C 
ATOM     20  C30 UNL     1      20.591   1.893  33.017  0.00  0.00    +0.034 C 
ATOM     21  C31 UNL     1      21.655   2.971  32.723  0.00  0.00    +0.086 C 
BRANCH  19  22
ATOM     22  N6  UNL     1      18.739   1.259  34.610  0.00  0.00    -0.311 NA
ATOM     23  H30 UNL     1      18.357   0.799  33.750  0.00  0.00    +0.122 HD
BRANCH  22  24
ATOM     24  C27 UNL     1      17.654   1.698  35.517  0.00  0.00    +0.048 C 
ATOM     25  C28 UNL     1      16.322   1.004  35.184  0.00  0.00    +0.023 C 
ATOM     26  C29 UNL     1      18.061   1.385  36.957  0.00  0.00    +0.023 C 
ENDBRANCH  22  24
ENDBRANCH  19  22
ENDBRANCH  15  16
ENDBRANCH  14  15
ENDBRANCH   6   8
BRANCH   1  30
ATOM     27  N1  UNL     1      16.896  11.225  35.412  0.00  0.00    -0.292 N 
ATOM     28  C11 UNL     1      18.127  10.664  35.882  0.00  0.00    +0.304 C 
ATOM     29  O1  UNL     1      19.026  11.417  36.347  0.00  0.00    -0.252 OA
ATOM     30  N2  UNL     1      18.312   9.241  35.865  0.00  0.00    -0.269 N 
ATOM     31  H12 UNL     1      16.167  10.578  35.031  0.00  0.00    +0.151 HD
ATOM     32  H13 UNL     1      17.463   8.642  35.741  0.00  0.00    +0.156 HD
BRANCH  27  42
ATOM     33  C1  UNL     1      11.992  14.325  32.501  0.00  0.00    +0.044 C 
ATOM     34  C2  UNL     1      13.205  13.844  33.242  0.00  0.00    -0.050 A 
ATOM     35  C3  UNL     1      14.363  13.455  32.535  0.00  0.00    +0.004 A 
ATOM     36  C4  UNL     1      15.512  13.045  33.228  0.00  0.00    +0.006 A 
ATOM     37  C5  UNL     1      15.492  13.044  34.625  0.00  0.00    -0.024 A 
ATOM     38  C6  UNL     1      14.377  13.443  35.318  0.00  0.00    -0.042 A 
ATOM     39  C7  UNL     1      13.219  13.850  34.651  0.00  0.00    +0.007 A 
ATOM     40  C8  UNL     1      14.580  13.385  36.783  0.00  0.00    +0.037 C 
ATOM     41  C9  UNL     1      16.061  12.993  36.940  0.00  0.00    +0.032 C 
ATOM     42  C10 UNL     1      16.603  12.657  35.531  0.00  0.00    +0.105 C 
ENDBRANCH  27  42
ENDBRANCH   1  30
TORSDOF 7
ENDMDL
MODEL 9
REMARK VINA RESULT:    -7.711      7.816     11.433
REMARK INTER + INTRA:         -12.285
REMARK INTER:                 -10.328
REMARK INTRA:                  -1.957
REMARK UNBOUND:                -1.419
REMARK  Name = /home/qwerty/github/datacon2025hack/step_04_hit_selection/docking/ligands/lig_355.pdb
REMARK  12 active torsions:
REMARK  status: ('A' for Active; 'I' for Inactive)
REMARK    1  A    between atoms: C1_1  and  C2_2
REMARK    2  A    between atoms: C10_10  and  N1_11
REMARK    3  A    between atoms: N2_14  and  C12_15
REMARK    4  A    between atoms: C15_18  and  C16_19
REMARK    5  A    between atoms: C17_20  and  C18_21
REMARK    6  A    between atoms: C19_23  and  C20_24
REMARK    7  A    between atoms: C22_27  and  C23_28
REMARK    8  A    between atoms: C23_28  and  N5_29
REMARK    9  A    between atoms: C26_32  and  N6_33
REMARK   10  A    between atoms: N6_33  and  C27_34
REMARK   11  A    between atoms: C27_34  and  C28_35
REMARK   12  A    between atoms: C27_34  and  C29_36
REMARK                            x       y       z     vdW  Elec       q    Type
REMARK                         _______ _______ _______ _____ _____    ______ ____
ROOT
ATOM      1  C12 UNL     1       8.568   8.296  23.478  0.00  0.00    +0.035 A 
ATOM      2  C13 UNL     1       7.954   8.543  22.244  0.00  0.00    +0.023 A 
ATOM      3  C14 UNL     1       7.539   7.483  21.433  0.00  0.00    +0.006 A 
ATOM      4  C15 UNL     1       7.747   6.154  21.834  0.00  0.00    -0.041 A 
ATOM      5  C16 UNL     1       7.299   5.030  20.939  0.00  0.00    +0.044 C 
ATOM      6  C17 UNL     1       8.420   5.900  23.050  0.00  0.00    +0.005 A 
ATOM      7  C32 UNL     1       8.816   6.970  23.866  0.00  0.00    +0.033 A 
ENDROOT
BRANCH   6   8
ATOM      8  C18 UNL     1       8.753   4.526  23.470  0.00  0.00    +0.079 A 
ATOM      9  N3  UNL     1       8.048   3.965  24.487  0.00  0.00    -0.232 NA
ATOM     10  C19 UNL     1       8.318   2.707  24.923  0.00  0.00    +0.127 A 
ATOM     11  C20 UNL     1       7.498   2.105  26.015  0.00  0.00    +0.088 C 
ATOM     12  N4  UNL     1       9.296   1.978  24.326  0.00  0.00    -0.240 NA
ATOM     13  C21 UNL     1      10.032   2.494  23.308  0.00  0.00    +0.119 A 
ATOM     14  C22 UNL     1       9.782   3.792  22.844  0.00  0.00    +0.011 A 
BRANCH  14  15
ATOM     15  C23 UNL     1      10.625   4.380  21.739  0.00  0.00    +0.123 C 
BRANCH  15  16
ATOM     16  N5  UNL     1      12.041   4.428  22.165  0.00  0.00    -0.298 NA
ATOM     17  C24 UNL     1      12.265   5.350  23.297  0.00  0.00    +0.086 C 
ATOM     18  C25 UNL     1      12.078   6.822  22.893  0.00  0.00    +0.034 C 
ATOM     19  C26 UNL     1      12.620   7.116  21.475  0.00  0.00    +0.056 C 
ATOM     20  C30 UNL     1      13.623   6.044  21.001  0.00  0.00    +0.034 C 
ATOM     21  C31 UNL     1      12.983   4.640  21.033  0.00  0.00    +0.086 C 
BRANCH  19  22
ATOM     22  N6  UNL     1      13.144   8.495  21.361  0.00  0.00    -0.311 NA
ATOM     23  H30 UNL     1      13.534   8.792  22.287  0.00  0.00    +0.122 HD
BRANCH  22  24
ATOM     24  C27 UNL     1      12.198   9.501  20.825  0.00  0.00    +0.048 C 
ATOM     25  C28 UNL     1      11.030   8.838  20.076  0.00  0.00    +0.023 C 
ATOM     26  C29 UNL     1      11.667  10.342  21.985  0.00  0.00    +0.023 C 
ENDBRANCH  22  24
ENDBRANCH  19  22
ENDBRANCH  15  16
ENDBRANCH  14  15
ENDBRANCH   6   8
BRANCH   1  30
ATOM     27  N1  UNL     1       8.957  10.800  26.336  0.00  0.00    -0.292 N 
ATOM     28  C11 UNL     1       8.355   9.796  25.509  0.00  0.00    +0.304 C 
ATOM     29  O1  UNL     1       7.247   9.292  25.838  0.00  0.00    -0.252 OA
ATOM     30  N2  UNL     1       8.996   9.405  24.287  0.00  0.00    -0.269 N 
ATOM     31  H12 UNL     1       9.878  11.202  26.041  0.00  0.00    +0.151 HD
ATOM     32  H13 UNL     1       9.749  10.027  23.912  0.00  0.00    +0.156 HD
BRANCH  27  42
ATOM     33  C1  UNL     1      11.377  10.826  32.358  0.00  0.00    +0.044 C 
ATOM     34  C2  UNL     1      10.599  10.900  31.078  0.00  0.00    -0.050 A 
ATOM     35  C3  UNL     1      10.088   9.725  30.487  0.00  0.00    +0.004 A 
ATOM     36  C4  UNL     1       9.325   9.797  29.312  0.00  0.00    +0.006 A 
ATOM     37  C5  UNL     1       9.070  11.051  28.749  0.00  0.00    -0.024 A 
ATOM     38  C6  UNL     1       9.546  12.198  29.332  0.00  0.00    -0.042 A 
ATOM     39  C7  UNL     1      10.312  12.152  30.498  0.00  0.00    +0.007 A 
ATOM     40  C8  UNL     1       9.142  13.411  28.585  0.00  0.00    +0.037 C 
ATOM     41  C9  UNL     1       8.217  12.876  27.476  0.00  0.00    +0.032 C 
ATOM     42  C10 UNL     1       8.281  11.332  27.523  0.00  0.00    +0.105 C 
ENDBRANCH  27  42
ENDBRANCH   1  30
TORSDOF 7
ENDMDL
