REMARK  Name = /home/qwerty/github/datacon2025hack/step_04_hit_selection/docking/ligands/lig_460.pdb
REMARK  6 active torsions:
REMARK  status: ('A' for Active; 'I' for Inactive)
REMARK    1  A    between atoms: C1_1  and  C2_2
REMARK    2  A    between atoms: C5_5  and  C6_6
REMARK    3  A    between atoms: C7_7  and  C8_8
REMARK    4  A    between atoms: C8_8  and  N1_9
REMARK    5  A    between atoms: C11_12  and  N2_13
REMARK    6  A    between atoms: C12_14  and  C13_16
REMARK                            x       y       z     vdW  Elec       q    Type
REMARK                         _______ _______ _______ _____ _____    ______ ____
ROOT
ATOM      1  N1  UNL     1      -1.517  -0.487   0.494  0.00  0.00    -0.296 NA
ATOM      2  C9  UNL     1      -1.394  -0.099  -0.917  0.00  0.00    +0.086 C 
ATOM      3  C10 UNL     1      -0.134  -0.763  -1.455  0.00  0.00    +0.039 C 
ATOM      4  C11 UNL     1       0.647  -1.210  -0.222  0.00  0.00    +0.088 C 
ATOM      5  C20 UNL     1      -0.142  -0.671   0.965  0.00  0.00    +0.107 C 
ENDROOT
BRANCH   4   6
ATOM      6  N2  UNL     1       2.013  -0.674  -0.234  0.00  0.00    -0.307 N 
ATOM      7  C12 UNL     1       3.165  -1.481   0.055  0.00  0.00    +0.244 C 
ATOM      8  O1  UNL     1       3.010  -2.653   0.497  0.00  0.00    -0.270 OA
ATOM      9  H16 UNL     1       2.131   0.358  -0.343  0.00  0.00    +0.149 HD
BRANCH   7  10
ATOM     10  C13 UNL     1       4.537  -0.952  -0.139  0.00  0.00    +0.037 A 
ATOM     11  C14 UNL     1       5.635  -1.569   0.532  0.00  0.00    +0.015 A 
ATOM     12  C15 UNL     1       6.948  -1.094   0.360  0.00  0.00    +0.031 A 
ATOM     13  C16 UNL     1       7.135  -0.008  -0.489  0.00  0.00    +0.093 A 
ATOM     14  N3  UNL     1       8.291   0.603  -0.801  0.00  0.00    -0.174 NA
ATOM     15  N4  UNL     1       7.979   1.581  -1.649  0.00  0.00    -0.284 N 
ATOM     16  C17 UNL     1       6.646   1.601  -1.882  0.00  0.00    +0.113 A 
ATOM     17  C18 UNL     1       6.090   0.586  -1.142  0.00  0.00    +0.020 A 
ATOM     18  C19 UNL     1       4.778   0.146  -1.003  0.00  0.00    +0.024 A 
ATOM     19  H19 UNL     1       8.678   2.233  -2.068  0.00  0.00    +0.188 HD
ENDBRANCH   7  10
ENDBRANCH   4   6
BRANCH   1  20
ATOM     20  C8  UNL     1      -2.238   0.519   1.298  0.00  0.00    +0.120 C 
BRANCH  20  27
ATOM     21  C1  UNL     1      -6.144   2.486  -1.180  0.00  0.00    +0.044 C 
ATOM     22  C2  UNL     1      -5.594   1.428  -0.268  0.00  0.00    -0.050 A 
ATOM     23  C3  UNL     1      -6.439   0.452   0.275  0.00  0.00    +0.003 A 
ATOM     24  C4  UNL     1      -5.930  -0.517   1.142  0.00  0.00    +0.004 A 
ATOM     25  C5  UNL     1      -4.568  -0.524   1.490  0.00  0.00    -0.046 A 
ATOM     26  C6  UNL     1      -4.057  -1.581   2.436  0.00  0.00    +0.044 C 
ATOM     27  C7  UNL     1      -3.715   0.484   0.974  0.00  0.00    -0.030 A 
ATOM     28  C21 UNL     1      -4.240   1.448   0.094  0.00  0.00    +0.008 A 
ENDBRANCH  20  27
ENDBRANCH   1  20
TORSDOF 4
