REMARK  Name = /home/qwerty/github/datacon2025hack/step_04_hit_selection/docking/ligands/lig_523.pdb
REMARK  7 active torsions:
REMARK  status: ('A' for Active; 'I' for Inactive)
REMARK    1  A    between atoms: C1_1  and  O1_2
REMARK    2  A    between atoms: O1_2  and  C2_3
REMARK    3  A    between atoms: C2_3  and  C3_5
REMARK    4  A    between atoms: C8_10  and  N1_11
REMARK    5  A    between atoms: N2_14  and  C10_15
REMARK    6  A    between atoms: C13_18  and  C14_19
REMARK    7  A    between atoms: C13_18  and  C15_20
REMARK                            x       y       z     vdW  Elec       q    Type
REMARK                         _______ _______ _______ _____ _____    ______ ____
ROOT
ATOM      1  N1  UNL     1      -0.158  -0.283  -0.454  0.00  0.00    -0.296 N 
ATOM      2  C9  UNL     1       0.219   0.050   0.889  0.00  0.00    +0.300 C 
ATOM      3  O3  UNL     1      -0.526  -0.273   1.854  0.00  0.00    -0.253 OA
ATOM      4  N2  UNL     1       1.446   0.754   1.129  0.00  0.00    -0.297 N 
ATOM      5  H12 UNL     1       0.446   0.063  -1.234  0.00  0.00    +0.151 HD
ATOM      6  H13 UNL     1       2.085   0.912   0.317  0.00  0.00    +0.151 HD
ENDROOT
BRANCH   1  12
ATOM      7  C3  UNL     1      -4.665  -1.292  -3.714  0.00  0.00    +0.103 C 
ATOM      8  C4  UNL     1      -4.296  -1.371  -2.233  0.00  0.00    +0.050 C 
ATOM      9  C5  UNL     1      -2.891  -1.872  -2.611  0.00  0.00    +0.073 C 
ATOM     10  C6  UNL     1      -3.270  -1.788  -4.095  0.00  0.00    +0.050 C 
ATOM     11  C7  UNL     1      -1.727  -0.919  -2.249  0.00  0.00    +0.057 C 
ATOM     12  C8  UNL     1      -1.373  -1.044  -0.762  0.00  0.00    +0.079 C 
ATOM     13  C18 UNL     1      -1.177  -2.524  -0.411  0.00  0.00    +0.050 C 
ATOM     14  C19 UNL     1      -2.409  -3.327  -0.841  0.00  0.00    +0.162 C 
ATOM     15  O4  UNL     1      -2.646  -3.220  -2.235  0.00  0.00    -0.373 OA
BRANCH   7  16
ATOM     16  C2  UNL     1      -4.971   0.102  -4.193  0.00  0.00    +0.310 C 
ATOM     17  O2  UNL     1      -4.168   1.049  -3.965  0.00  0.00    -0.251 OA
BRANCH  16  19
ATOM     18  C1  UNL     1      -6.524   1.619  -5.378  0.00  0.00    +0.280 C 
ATOM     19  O1  UNL     1      -6.158   0.333  -4.894  0.00  0.00    -0.468 OA
ENDBRANCH  16  19
ENDBRANCH   7  16
ENDBRANCH   1  12
BRANCH   4  20
ATOM     20  C10 UNL     1       1.941   1.039   2.480  0.00  0.00    +0.074 C 
ATOM     21  C11 UNL     1       2.680   2.399   2.495  0.00  0.00    +0.023 C 
ATOM     22  C12 UNL     1       3.712   2.461   3.627  0.00  0.00    +0.008 C 
ATOM     23  C13 UNL     1       4.838   1.391   3.451  0.00  0.00    -0.035 C 
ATOM     24  C14 UNL     1       6.006   1.997   2.645  0.00  0.00    +0.011 C 
ATOM     25  C15 UNL     1       5.369   0.991   4.845  0.00  0.00    +0.011 C 
ATOM     26  C16 UNL     1       4.312   0.122   2.706  0.00  0.00    +0.008 C 
ATOM     27  C17 UNL     1       2.825  -0.132   2.977  0.00  0.00    +0.023 C 
ENDBRANCH   4  20
TORSDOF 4
