MODEL 1
REMARK VINA RESULT:    -6.201      0.000      0.000
REMARK INTER + INTRA:          -8.952
REMARK INTER:                  -8.013
REMARK INTRA:                  -0.939
REMARK UNBOUND:                -0.939
REMARK  Name = /home/qwerty/github/datacon2025hack/step_04_hit_selection/docking/ligands/lig_492.pdb
REMARK  8 active torsions:
REMARK  status: ('A' for Active; 'I' for Inactive)
REMARK    1  A    between atoms: C1_1  and  C2_2
REMARK    2  A    between atoms: C2_2  and  C3_3
REMARK    3  A    between atoms: C2_2  and  N1_4
REMARK    4  A    between atoms: N1_4  and  C4_5
REMARK    5  A    between atoms: N1_4  and  C5_6
REMARK    6  A    between atoms: C10_11  and  N2_12
REMARK    7  A    between atoms: C11_13  and  C12_15
REMARK    8  A    between atoms: C16_19  and  C17_20
REMARK                            x       y       z     vdW  Elec       q    Type
REMARK                         _______ _______ _______ _____ _____    ______ ____
ROOT
ATOM      1  N2  UNL     1      17.469   1.277  24.932  0.00  0.00    -0.280 N 
ATOM      2  C11 UNL     1      18.839   0.982  25.252  0.00  0.00    +0.248 C 
ATOM      3  O1  UNL     1      19.649   0.694  24.329  0.00  0.00    -0.270 OA
ATOM      4  H15 UNL     1      16.909   1.839  25.609  0.00  0.00    +0.155 HD
ENDROOT
BRANCH   1  10
ATOM      5  C5  UNL     1      16.347  -0.303  23.400  0.00  0.00    +0.051 A 
ATOM      6  C6  UNL     1      15.831  -0.599  22.127  0.00  0.00    +0.025 A 
ATOM      7  C7  UNL     1      15.844   0.365  21.116  0.00  0.00    +0.002 A 
ATOM      8  C8  UNL     1      16.376   1.631  21.365  0.00  0.00    +0.002 A 
ATOM      9  C9  UNL     1      16.896   1.937  22.625  0.00  0.00    +0.025 A 
ATOM     10  C10 UNL     1      16.881   0.979  23.654  0.00  0.00    +0.055 A 
BRANCH   5  11
ATOM     11  N1  UNL     1      16.286  -1.293  24.442  0.00  0.00    -0.329 N 
ATOM     12  C4  UNL     1      17.119  -2.496  24.313  0.00  0.00    +0.129 C 
BRANCH  11  14
ATOM     13  C1  UNL     1      14.372  -2.575  25.347  0.00  0.00    +0.027 C 
ATOM     14  C2  UNL     1      15.146  -1.253  25.380  0.00  0.00    +0.067 C 
ATOM     15  C3  UNL     1      15.595  -0.913  26.807  0.00  0.00    +0.027 C 
ENDBRANCH  11  14
ENDBRANCH   5  11
ENDBRANCH   1  10
BRANCH   2  16
ATOM     16  C12 UNL     1      19.327   1.061  26.651  0.00  0.00    +0.038 A 
ATOM     17  C13 UNL     1      18.491   1.521  27.683  0.00  0.00    +0.013 A 
ATOM     18  C14 UNL     1      18.959   1.589  28.995  0.00  0.00    +0.001 A 
ATOM     19  C15 UNL     1      20.263   1.197  29.298  0.00  0.00    +0.011 A 
ATOM     20  C16 UNL     1      21.118   0.725  28.288  0.00  0.00    +0.020 A 
ATOM     21  C20 UNL     1      20.639   0.658  26.965  0.00  0.00    +0.024 A 
BRANCH  20  22
ATOM     22  C17 UNL     1      22.496   0.311  28.634  0.00  0.00    +0.155 A 
ATOM     23  C18 UNL     1      22.999  -0.971  28.749  0.00  0.00    +0.160 A 
ATOM     24  N3  UNL     1      24.301  -0.900  29.080  0.00  0.00    -0.224 NA
ATOM     25  C19 UNL     1      24.542   0.425  29.153  0.00  0.00    +0.308 A 
ATOM     26  O2  UNL     1      23.475   1.144  28.890  0.00  0.00    -0.442 OA
ENDBRANCH  20  22
ENDBRANCH   2  16
TORSDOF 5
ENDMDL
MODEL 2
REMARK VINA RESULT:    -6.186      6.361     10.955
REMARK INTER + INTRA:          -8.933
REMARK INTER:                  -8.068
REMARK INTRA:                  -0.866
REMARK UNBOUND:                -0.939
REMARK  Name = /home/qwerty/github/datacon2025hack/step_04_hit_selection/docking/ligands/lig_492.pdb
REMARK  8 active torsions:
REMARK  status: ('A' for Active; 'I' for Inactive)
REMARK    1  A    between atoms: C1_1  and  C2_2
REMARK    2  A    between atoms: C2_2  and  C3_3
REMARK    3  A    between atoms: C2_2  and  N1_4
REMARK    4  A    between atoms: N1_4  and  C4_5
REMARK    5  A    between atoms: N1_4  and  C5_6
REMARK    6  A    between atoms: C10_11  and  N2_12
REMARK    7  A    between atoms: C11_13  and  C12_15
REMARK    8  A    between atoms: C16_19  and  C17_20
REMARK                            x       y       z     vdW  Elec       q    Type
REMARK                         _______ _______ _______ _____ _____    ______ ____
ROOT
ATOM      1  N2  UNL     1      21.286   5.769  32.941  0.00  0.00    -0.280 N 
ATOM      2  C11 UNL     1      21.590   4.392  32.665  0.00  0.00    +0.248 C 
ATOM      3  O1  UNL     1      21.778   3.590  33.621  0.00  0.00    -0.270 OA
ATOM      4  H15 UNL     1      20.799   6.329  32.207  0.00  0.00    +0.155 HD
ENDROOT
BRANCH   1  10
ATOM      5  C5  UNL     1      22.650   7.089  34.522  0.00  0.00    +0.051 A 
ATOM      6  C6  UNL     1      22.842   7.618  35.810  0.00  0.00    +0.025 A 
ATOM      7  C7  UNL     1      21.877   7.435  36.802  0.00  0.00    +0.002 A 
ATOM      8  C8  UNL     1      20.712   6.720  36.520  0.00  0.00    +0.002 A 
ATOM      9  C9  UNL     1      20.509   6.186  35.245  0.00  0.00    +0.025 A 
ATOM     10  C10 UNL     1      21.469   6.370  34.234  0.00  0.00    +0.055 A 
BRANCH   5  11
ATOM     11  N1  UNL     1      23.635   7.323  33.500  0.00  0.00    -0.329 N 
ATOM     12  C4  UNL     1      24.737   6.363  33.357  0.00  0.00    +0.129 C 
BRANCH  11  14
ATOM     13  C1  UNL     1      25.170   9.017  32.549  0.00  0.00    +0.027 C 
ATOM     14  C2  UNL     1      23.720   8.672  32.905  0.00  0.00    +0.067 C 
ATOM     15  C3  UNL     1      22.804   8.814  31.683  0.00  0.00    +0.027 C 
ENDBRANCH  11  14
ENDBRANCH   5  11
ENDBRANCH   1  10
BRANCH   2  16
ATOM     16  C12 UNL     1      21.637   3.887  31.270  0.00  0.00    +0.038 A 
ATOM     17  C13 UNL     1      21.103   4.642  30.212  0.00  0.00    +0.013 A 
ATOM     18  C14 UNL     1      21.154   4.159  28.904  0.00  0.00    +0.001 A 
ATOM     19  C15 UNL     1      21.742   2.923  28.633  0.00  0.00    +0.011 A 
ATOM     20  C16 UNL     1      22.292   2.153  29.670  0.00  0.00    +0.020 A 
ATOM     21  C20 UNL     1      22.238   2.646  30.989  0.00  0.00    +0.024 A 
BRANCH  20  22
ATOM     22  C17 UNL     1      22.914   0.846  29.358  0.00  0.00    +0.155 A 
ATOM     23  C18 UNL     1      24.258   0.543  29.261  0.00  0.00    +0.160 A 
ATOM     24  N3  UNL     1      24.390  -0.762  28.959  0.00  0.00    -0.224 NA
ATOM     25  C19 UNL     1      23.117  -1.203  28.885  0.00  0.00    +0.308 A 
ATOM     26  O2  UNL     1      22.242  -0.253  29.120  0.00  0.00    -0.442 OA
ENDBRANCH  20  22
ENDBRANCH   2  16
TORSDOF 5
ENDMDL
MODEL 3
REMARK VINA RESULT:    -6.033      6.263     10.353
REMARK INTER + INTRA:          -8.735
REMARK INTER:                  -7.741
REMARK INTRA:                  -0.994
REMARK UNBOUND:                -0.939
REMARK  Name = /home/qwerty/github/datacon2025hack/step_04_hit_selection/docking/ligands/lig_492.pdb
REMARK  8 active torsions:
REMARK  status: ('A' for Active; 'I' for Inactive)
REMARK    1  A    between atoms: C1_1  and  C2_2
REMARK    2  A    between atoms: C2_2  and  C3_3
REMARK    3  A    between atoms: C2_2  and  N1_4
REMARK    4  A    between atoms: N1_4  and  C4_5
REMARK    5  A    between atoms: N1_4  and  C5_6
REMARK    6  A    between atoms: C10_11  and  N2_12
REMARK    7  A    between atoms: C11_13  and  C12_15
REMARK    8  A    between atoms: C16_19  and  C17_20
REMARK                            x       y       z     vdW  Elec       q    Type
REMARK                         _______ _______ _______ _____ _____    ______ ____
ROOT
ATOM      1  N2  UNL     1      21.704   5.364  33.135  0.00  0.00    -0.280 N 
ATOM      2  C11 UNL     1      21.762   3.963  32.824  0.00  0.00    +0.248 C 
ATOM      3  O1  UNL     1      21.755   3.114  33.758  0.00  0.00    -0.270 OA
ATOM      4  H15 UNL     1      21.361   6.024  32.402  0.00  0.00    +0.155 HD
ENDROOT
BRANCH   1  10
ATOM      5  C5  UNL     1      20.846   6.274  35.265  0.00  0.00    +0.051 A 
ATOM      6  C6  UNL     1      21.088   6.840  36.528  0.00  0.00    +0.025 A 
ATOM      7  C7  UNL     1      22.396   7.019  36.984  0.00  0.00    +0.002 A 
ATOM      8  C8  UNL     1      23.473   6.640  36.182  0.00  0.00    +0.002 A 
ATOM      9  C9  UNL     1      23.246   6.080  34.922  0.00  0.00    +0.025 A 
ATOM     10  C10 UNL     1      21.935   5.886  34.455  0.00  0.00    +0.055 A 
BRANCH   5  11
ATOM     11  N1  UNL     1      19.492   6.057  34.829  0.00  0.00    -0.329 N 
ATOM     12  C4  UNL     1      18.810   7.135  34.100  0.00  0.00    +0.129 C 
BRANCH  11  14
ATOM     13  C1  UNL     1      17.470   5.481  36.136  0.00  0.00    +0.027 C 
ATOM     14  C2  UNL     1      18.728   4.951  35.440  0.00  0.00    +0.067 C 
ATOM     15  C3  UNL     1      18.374   3.868  34.413  0.00  0.00    +0.027 C 
ENDBRANCH  11  14
ENDBRANCH   5  11
ENDBRANCH   1  10
BRANCH   2  16
ATOM     16  C12 UNL     1      21.780   3.496  31.415  0.00  0.00    +0.038 A 
ATOM     17  C13 UNL     1      21.162   4.245  30.400  0.00  0.00    +0.013 A 
ATOM     18  C14 UNL     1      21.186   3.798  29.078  0.00  0.00    +0.001 A 
ATOM     19  C15 UNL     1      21.829   2.604  28.751  0.00  0.00    +0.011 A 
ATOM     20  C16 UNL     1      22.463   1.841  29.745  0.00  0.00    +0.020 A 
ATOM     21  C20 UNL     1      22.436   2.297  31.077  0.00  0.00    +0.024 A 
BRANCH  20  22
ATOM     22  C17 UNL     1      23.143   0.579  29.373  0.00  0.00    +0.155 A 
ATOM     23  C18 UNL     1      22.569  -0.628  29.023  0.00  0.00    +0.160 A 
ATOM     24  N3  UNL     1      23.547  -1.515  28.760  0.00  0.00    -0.224 NA
ATOM     25  C19 UNL     1      24.680  -0.811  28.960  0.00  0.00    +0.308 A 
ATOM     26  O2  UNL     1      24.444   0.428  29.324  0.00  0.00    -0.442 OA
ENDBRANCH  20  22
ENDBRANCH   2  16
TORSDOF 5
ENDMDL
MODEL 4
REMARK VINA RESULT:    -5.971     14.980     17.945
REMARK INTER + INTRA:          -8.655
REMARK INTER:                  -7.661
REMARK INTRA:                  -0.993
REMARK UNBOUND:                -0.939
REMARK  Name = /home/qwerty/github/datacon2025hack/step_04_hit_selection/docking/ligands/lig_492.pdb
REMARK  8 active torsions:
REMARK  status: ('A' for Active; 'I' for Inactive)
REMARK    1  A    between atoms: C1_1  and  C2_2
REMARK    2  A    between atoms: C2_2  and  C3_3
REMARK    3  A    between atoms: C2_2  and  N1_4
REMARK    4  A    between atoms: N1_4  and  C4_5
REMARK    5  A    between atoms: N1_4  and  C5_6
REMARK    6  A    between atoms: C10_11  and  N2_12
REMARK    7  A    between atoms: C11_13  and  C12_15
REMARK    8  A    between atoms: C16_19  and  C17_20
REMARK                            x       y       z     vdW  Elec       q    Type
REMARK                         _______ _______ _______ _____ _____    ______ ____
ROOT
ATOM      1  N2  UNL     1      13.135  12.397  33.397  0.00  0.00    -0.280 N 
ATOM      2  C11 UNL     1      12.251  13.149  32.550  0.00  0.00    +0.248 C 
ATOM      3  O1  UNL     1      12.298  14.410  32.559  0.00  0.00    -0.270 OA
ATOM      4  H15 UNL     1      13.344  11.406  33.144  0.00  0.00    +0.155 HD
ENDROOT
BRANCH   1  10
ATOM      5  C5  UNL     1      13.266  13.175  35.738  0.00  0.00    +0.051 A 
ATOM      6  C6  UNL     1      13.982  13.809  36.768  0.00  0.00    +0.025 A 
ATOM      7  C7  UNL     1      15.288  14.253  36.551  0.00  0.00    +0.002 A 
ATOM      8  C8  UNL     1      15.890  14.073  35.306  0.00  0.00    +0.002 A 
ATOM      9  C9  UNL     1      15.188  13.448  34.272  0.00  0.00    +0.025 A 
ATOM     10  C10 UNL     1      13.876  12.987  34.479  0.00  0.00    +0.055 A 
BRANCH   5  11
ATOM     11  N1  UNL     1      11.937  12.684  35.990  0.00  0.00    -0.329 N 
ATOM     12  C4  UNL     1      10.822  13.640  35.965  0.00  0.00    +0.129 C 
BRANCH  11  14
ATOM     13  C1  UNL     1      10.861  11.441  37.841  0.00  0.00    +0.027 C 
ATOM     14  C2  UNL     1      11.788  11.358  36.624  0.00  0.00    +0.067 C 
ATOM     15  C3  UNL     1      11.295  10.303  35.626  0.00  0.00    +0.027 C 
ENDBRANCH  11  14
ENDBRANCH   5  11
ENDBRANCH   1  10
BRANCH   2  16
ATOM     16  C12 UNL     1      11.314  12.462  31.626  0.00  0.00    +0.038 A 
ATOM     17  C13 UNL     1      11.286  11.060  31.539  0.00  0.00    +0.013 A 
ATOM     18  C14 UNL     1      10.400  10.424  30.669  0.00  0.00    +0.001 A 
ATOM     19  C15 UNL     1       9.529  11.174  29.879  0.00  0.00    +0.011 A 
ATOM     20  C16 UNL     1       9.530  12.577  29.953  0.00  0.00    +0.020 A 
ATOM     21  C20 UNL     1      10.426  13.213  30.833  0.00  0.00    +0.024 A 
BRANCH  20  22
ATOM     22  C17 UNL     1       8.594  13.352  29.107  0.00  0.00    +0.155 A 
ATOM     23  C18 UNL     1       8.656  13.569  27.744  0.00  0.00    +0.160 A 
ATOM     24  N3  UNL     1       7.608  14.329  27.377  0.00  0.00    -0.224 NA
ATOM     25  C19 UNL     1       6.947  14.544  28.533  0.00  0.00    +0.308 A 
ATOM     26  O2  UNL     1       7.530  13.968  29.559  0.00  0.00    -0.442 OA
ENDBRANCH  20  22
ENDBRANCH   2  16
TORSDOF 5
ENDMDL
MODEL 5
REMARK VINA RESULT:    -5.941     12.886     14.978
REMARK INTER + INTRA:          -8.616
REMARK INTER:                  -7.607
REMARK INTRA:                  -1.009
REMARK UNBOUND:                -0.939
REMARK  Name = /home/qwerty/github/datacon2025hack/step_04_hit_selection/docking/ligands/lig_492.pdb
REMARK  8 active torsions:
REMARK  status: ('A' for Active; 'I' for Inactive)
REMARK    1  A    between atoms: C1_1  and  C2_2
REMARK    2  A    between atoms: C2_2  and  C3_3
REMARK    3  A    between atoms: C2_2  and  N1_4
REMARK    4  A    between atoms: N1_4  and  C4_5
REMARK    5  A    between atoms: N1_4  and  C5_6
REMARK    6  A    between atoms: C10_11  and  N2_12
REMARK    7  A    between atoms: C11_13  and  C12_15
REMARK    8  A    between atoms: C16_19  and  C17_20
REMARK                            x       y       z     vdW  Elec       q    Type
REMARK                         _______ _______ _______ _____ _____    ______ ____
ROOT
ATOM      1  N2  UNL     1       9.518   8.376  24.377  0.00  0.00    -0.280 N 
ATOM      2  C11 UNL     1       8.685   9.298  25.098  0.00  0.00    +0.248 C 
ATOM      3  O1  UNL     1       7.430   9.202  25.018  0.00  0.00    -0.270 OA
ATOM      4  H15 UNL     1      10.497   8.227  24.705  0.00  0.00    +0.155 HD
ENDROOT
BRANCH   1  10
ATOM      5  C5  UNL     1       8.857   8.032  22.022  0.00  0.00    +0.051 A 
ATOM      6  C6  UNL     1       8.313   7.207  21.022  0.00  0.00    +0.025 A 
ATOM      7  C7  UNL     1       7.936   5.895  21.315  0.00  0.00    +0.002 A 
ATOM      8  C8  UNL     1       8.094   5.394  22.608  0.00  0.00    +0.002 A 
ATOM      9  C9  UNL     1       8.630   6.205  23.612  0.00  0.00    +0.025 A 
ATOM     10  C10 UNL     1       9.022   7.525  23.329  0.00  0.00    +0.055 A 
BRANCH   5  11
ATOM     11  N1  UNL     1       9.279   9.367  21.693  0.00  0.00    -0.329 N 
ATOM     12  C4  UNL     1       8.252  10.403  21.521  0.00  0.00    +0.129 C 
BRANCH  11  14
ATOM     13  C1  UNL     1      10.621  10.232  19.801  0.00  0.00    +0.027 C 
ATOM     14  C2  UNL     1      10.650   9.562  21.178  0.00  0.00    +0.067 C 
ATOM     15  C3  UNL     1      11.519  10.357  22.161  0.00  0.00    +0.027 C 
ENDBRANCH  11  14
ENDBRANCH   5  11
ENDBRANCH   1  10
BRANCH   2  16
ATOM     16  C12 UNL     1       9.281  10.334  25.978  0.00  0.00    +0.038 A 
ATOM     17  C13 UNL     1      10.675  10.448  26.116  0.00  0.00    +0.013 A 
ATOM     18  C14 UNL     1      11.225  11.427  26.944  0.00  0.00    +0.001 A 
ATOM     19  C15 UNL     1      10.396  12.306  27.641  0.00  0.00    +0.011 A 
ATOM     20  C16 UNL     1       9.000  12.221  27.514  0.00  0.00    +0.020 A 
ATOM     21  C20 UNL     1       8.450  11.231  26.676  0.00  0.00    +0.024 A 
BRANCH  20  22
ATOM     22  C17 UNL     1       8.140  13.168  28.260  0.00  0.00    +0.155 A 
ATOM     23  C18 UNL     1       7.396  14.219  27.761  0.00  0.00    +0.160 A 
ATOM     24  N3  UNL     1       6.760  14.825  28.780  0.00  0.00    -0.224 NA
ATOM     25  C19 UNL     1       7.141  14.116  29.862  0.00  0.00    +0.308 A 
ATOM     26  O2  UNL     1       7.959  13.134  29.557  0.00  0.00    -0.442 OA
ENDBRANCH  20  22
ENDBRANCH   2  16
TORSDOF 5
ENDMDL
MODEL 6
REMARK VINA RESULT:    -5.895     12.595     13.989
REMARK INTER + INTRA:          -8.557
REMARK INTER:                  -7.628
REMARK INTRA:                  -0.929
REMARK UNBOUND:                -0.939
REMARK  Name = /home/qwerty/github/datacon2025hack/step_04_hit_selection/docking/ligands/lig_492.pdb
REMARK  8 active torsions:
REMARK  status: ('A' for Active; 'I' for Inactive)
REMARK    1  A    between atoms: C1_1  and  C2_2
REMARK    2  A    between atoms: C2_2  and  C3_3
REMARK    3  A    between atoms: C2_2  and  N1_4
REMARK    4  A    between atoms: N1_4  and  C4_5
REMARK    5  A    between atoms: N1_4  and  C5_6
REMARK    6  A    between atoms: C10_11  and  N2_12
REMARK    7  A    between atoms: C11_13  and  C12_15
REMARK    8  A    between atoms: C16_19  and  C17_20
REMARK                            x       y       z     vdW  Elec       q    Type
REMARK                         _______ _______ _______ _____ _____    ______ ____
ROOT
ATOM      1  N2  UNL     1      22.854  11.821  21.380  0.00  0.00    -0.280 N 
ATOM      2  C11 UNL     1      23.395  13.132  21.148  0.00  0.00    +0.248 C 
ATOM      3  O1  UNL     1      23.525  13.555  19.967  0.00  0.00    -0.270 OA
ATOM      4  H15 UNL     1      22.428  11.614  22.310  0.00  0.00    +0.155 HD
ENDROOT
BRANCH   1  10
ATOM      5  C5  UNL     1      21.447  10.505  19.834  0.00  0.00    +0.051 A 
ATOM      6  C6  UNL     1      21.325   9.493  18.866  0.00  0.00    +0.025 A 
ATOM      7  C7  UNL     1      22.456   8.813  18.409  0.00  0.00    +0.002 A 
ATOM      8  C8  UNL     1      23.716   9.132  18.915  0.00  0.00    +0.002 A 
ATOM      9  C9  UNL     1      23.850  10.133  19.881  0.00  0.00    +0.025 A 
ATOM     10  C10 UNL     1      22.722  10.832  20.344  0.00  0.00    +0.055 A 
BRANCH   5  11
ATOM     11  N1  UNL     1      20.277  11.225  20.263  0.00  0.00    -0.329 N 
ATOM     12  C4  UNL     1      19.636  10.831  21.524  0.00  0.00    +0.129 C 
BRANCH  11  14
ATOM     13  C1  UNL     1      18.045  11.955  19.480  0.00  0.00    +0.027 C 
ATOM     14  C2  UNL     1      19.560  12.051  19.270  0.00  0.00    +0.067 C 
ATOM     15  C3  UNL     1      20.029  13.511  19.298  0.00  0.00    +0.027 C 
ENDBRANCH  11  14
ENDBRANCH   5  11
ENDBRANCH   1  10
BRANCH   2  16
ATOM     16  C12 UNL     1      23.755  14.018  22.283  0.00  0.00    +0.038 A 
ATOM     17  C13 UNL     1      24.514  15.182  22.076  0.00  0.00    +0.013 A 
ATOM     18  C14 UNL     1      24.845  16.009  23.149  0.00  0.00    +0.001 A 
ATOM     19  C15 UNL     1      24.423  15.691  24.440  0.00  0.00    +0.011 A 
ATOM     20  C16 UNL     1      23.656  14.538  24.674  0.00  0.00    +0.020 A 
ATOM     21  C20 UNL     1      23.323  13.707  23.586  0.00  0.00    +0.024 A 
BRANCH  20  22
ATOM     22  C17 UNL     1      23.215  14.222  26.051  0.00  0.00    +0.155 A 
ATOM     23  C18 UNL     1      21.925  14.075  26.522  0.00  0.00    +0.160 A 
ATOM     24  N3  UNL     1      21.970  13.790  27.836  0.00  0.00    -0.224 NA
ATOM     25  C19 UNL     1      23.289  13.774  28.115  0.00  0.00    +0.308 A 
ATOM     26  O2  UNL     1      24.029  14.030  27.060  0.00  0.00    -0.442 OA
ENDBRANCH  20  22
ENDBRANCH   2  16
TORSDOF 5
ENDMDL
MODEL 7
REMARK VINA RESULT:    -5.894     12.626     14.304
REMARK INTER + INTRA:          -8.556
REMARK INTER:                  -7.551
REMARK INTRA:                  -1.005
REMARK UNBOUND:                -0.939
REMARK  Name = /home/qwerty/github/datacon2025hack/step_04_hit_selection/docking/ligands/lig_492.pdb
REMARK  8 active torsions:
REMARK  status: ('A' for Active; 'I' for Inactive)
REMARK    1  A    between atoms: C1_1  and  C2_2
REMARK    2  A    between atoms: C2_2  and  C3_3
REMARK    3  A    between atoms: C2_2  and  N1_4
REMARK    4  A    between atoms: N1_4  and  C4_5
REMARK    5  A    between atoms: N1_4  and  C5_6
REMARK    6  A    between atoms: C10_11  and  N2_12
REMARK    7  A    between atoms: C11_13  and  C12_15
REMARK    8  A    between atoms: C16_19  and  C17_20
REMARK                            x       y       z     vdW  Elec       q    Type
REMARK                         _______ _______ _______ _____ _____    ______ ____
ROOT
ATOM      1  N2  UNL     1       9.009   8.209  25.872  0.00  0.00    -0.280 N 
ATOM      2  C11 UNL     1       7.966   8.776  26.682  0.00  0.00    +0.248 C 
ATOM      3  O1  UNL     1       6.814   8.262  26.668  0.00  0.00    -0.270 OA
ATOM      4  H15 UNL     1      10.002   8.392  26.137  0.00  0.00    +0.155 HD
ENDROOT
BRANCH   1  10
ATOM      5  C5  UNL     1       8.601   7.716  23.486  0.00  0.00    +0.051 A 
ATOM      6  C6  UNL     1       8.294   6.792  22.473  0.00  0.00    +0.025 A 
ATOM      7  C7  UNL     1       8.142   5.437  22.774  0.00  0.00    +0.002 A 
ATOM      8  C8  UNL     1       8.291   4.992  24.088  0.00  0.00    +0.002 A 
ATOM      9  C9  UNL     1       8.593   5.901  25.106  0.00  0.00    +0.025 A 
ATOM     10  C10 UNL     1       8.757   7.267  24.815  0.00  0.00    +0.055 A 
BRANCH   5  11
ATOM     11  N1  UNL     1       8.796   9.102  23.152  0.00  0.00    -0.329 N 
ATOM     12  C4  UNL     1       7.640  10.005  23.210  0.00  0.00    +0.129 C 
BRANCH  11  14
ATOM     13  C1  UNL     1       9.666  10.141  21.080  0.00  0.00    +0.027 C 
ATOM     14  C2  UNL     1      10.020   9.480  22.416  0.00  0.00    +0.067 C 
ATOM     15  C3  UNL     1      10.932  10.384  23.254  0.00  0.00    +0.027 C 
ENDBRANCH  11  14
ENDBRANCH   5  11
ENDBRANCH   1  10
BRANCH   2  16
ATOM     16  C12 UNL     1       8.239   9.930  27.575  0.00  0.00    +0.038 A 
ATOM     17  C13 UNL     1       7.503  10.116  28.758  0.00  0.00    +0.013 A 
ATOM     18  C14 UNL     1       7.769  11.202  29.591  0.00  0.00    +0.001 A 
ATOM     19  C15 UNL     1       8.772  12.115  29.261  0.00  0.00    +0.011 A 
ATOM     20  C16 UNL     1       9.528  11.947  28.089  0.00  0.00    +0.020 A 
ATOM     21  C20 UNL     1       9.256  10.848  27.252  0.00  0.00    +0.024 A 
BRANCH  20  22
ATOM     22  C17 UNL     1      10.590  12.925  27.761  0.00  0.00    +0.155 A 
ATOM     23  C18 UNL     1      11.752  12.715  27.043  0.00  0.00    +0.160 A 
ATOM     24  N3  UNL     1      12.438  13.870  26.977  0.00  0.00    -0.224 NA
ATOM     25  C19 UNL     1      11.666  14.741  27.658  0.00  0.00    +0.308 A 
ATOM     26  O2  UNL     1      10.571  14.184  28.124  0.00  0.00    -0.442 OA
ENDBRANCH  20  22
ENDBRANCH   2  16
TORSDOF 5
ENDMDL
MODEL 8
REMARK VINA RESULT:    -5.849      2.599      8.041
REMARK INTER + INTRA:          -8.498
REMARK INTER:                  -7.340
REMARK INTRA:                  -1.158
REMARK UNBOUND:                -0.939
REMARK  Name = /home/qwerty/github/datacon2025hack/step_04_hit_selection/docking/ligands/lig_492.pdb
REMARK  8 active torsions:
REMARK  status: ('A' for Active; 'I' for Inactive)
REMARK    1  A    between atoms: C1_1  and  C2_2
REMARK    2  A    between atoms: C2_2  and  C3_3
REMARK    3  A    between atoms: C2_2  and  N1_4
REMARK    4  A    between atoms: N1_4  and  C4_5
REMARK    5  A    between atoms: N1_4  and  C5_6
REMARK    6  A    between atoms: C10_11  and  N2_12
REMARK    7  A    between atoms: C11_13  and  C12_15
REMARK    8  A    between atoms: C16_19  and  C17_20
REMARK                            x       y       z     vdW  Elec       q    Type
REMARK                         _______ _______ _______ _____ _____    ______ ____
ROOT
ATOM      1  N2  UNL     1      20.281   0.462  25.854  0.00  0.00    -0.280 N 
ATOM      2  C11 UNL     1      18.848   0.365  25.904  0.00  0.00    +0.248 C 
ATOM      3  O1  UNL     1      18.221   0.879  26.870  0.00  0.00    -0.270 OA
ATOM      4  H15 UNL     1      20.755   0.364  24.929  0.00  0.00    +0.155 HD
ENDROOT
BRANCH   1  10
ATOM      5  C5  UNL     1      21.576   2.170  27.082  0.00  0.00    +0.051 A 
ATOM      6  C6  UNL     1      22.408   2.520  28.159  0.00  0.00    +0.025 A 
ATOM      7  C7  UNL     1      22.748   1.573  29.127  0.00  0.00    +0.002 A 
ATOM      8  C8  UNL     1      22.264   0.268  29.028  0.00  0.00    +0.002 A 
ATOM      9  C9  UNL     1      21.438  -0.095  27.960  0.00  0.00    +0.025 A 
ATOM     10  C10 UNL     1      21.082   0.851  26.983  0.00  0.00    +0.055 A 
BRANCH   5  11
ATOM     11  N1  UNL     1      21.201   3.169  26.116  0.00  0.00    -0.329 N 
ATOM     12  C4  UNL     1      22.210   3.621  25.149  0.00  0.00    +0.129 C 
BRANCH  11  14
ATOM     13  C1  UNL     1      20.332   5.388  26.787  0.00  0.00    +0.027 C 
ATOM     14  C2  UNL     1      19.978   3.958  26.364  0.00  0.00    +0.067 C 
ATOM     15  C3  UNL     1      19.045   3.960  25.147  0.00  0.00    +0.027 C 
ENDBRANCH  11  14
ENDBRANCH   5  11
ENDBRANCH   1  10
BRANCH   2  16
ATOM     16  C12 UNL     1      18.090  -0.287  24.808  0.00  0.00    +0.038 A 
ATOM     17  C13 UNL     1      17.887  -1.678  24.800  0.00  0.00    +0.013 A 
ATOM     18  C14 UNL     1      17.170  -2.281  23.766  0.00  0.00    +0.001 A 
ATOM     19  C15 UNL     1      16.645  -1.509  22.730  0.00  0.00    +0.011 A 
ATOM     20  C16 UNL     1      16.825  -0.116  22.718  0.00  0.00    +0.020 A 
ATOM     21  C20 UNL     1      17.549   0.488  23.765  0.00  0.00    +0.024 A 
BRANCH  20  22
ATOM     22  C17 UNL     1      16.255   0.684  21.610  0.00  0.00    +0.155 A 
ATOM     23  C18 UNL     1      16.511   2.003  21.291  0.00  0.00    +0.160 A 
ATOM     24  N3  UNL     1      15.783   2.339  20.210  0.00  0.00    -0.224 NA
ATOM     25  C19 UNL     1      15.111   1.208  19.913  0.00  0.00    +0.308 A 
ATOM     26  O2  UNL     1      15.388   0.227  20.741  0.00  0.00    -0.442 OA
ENDBRANCH  20  22
ENDBRANCH   2  16
TORSDOF 5
ENDMDL
