MODEL 1
REMARK VINA RESULT:    -6.218      0.000      0.000
REMARK INTER + INTRA:          -9.070
REMARK INTER:                  -8.399
REMARK INTRA:                  -0.671
REMARK UNBOUND:                -0.671
REMARK  Name = /home/qwerty/github/datacon2025hack/step_04_hit_selection/docking/ligands/lig_645.pdb
REMARK  9 active torsions:
REMARK  status: ('A' for Active; 'I' for Inactive)
REMARK    1  A    between atoms: C1_1  and  C2_2
REMARK    2  A    between atoms: C2_2  and  C3_3
REMARK    3  A    between atoms: C2_2  and  N1_4
REMARK    4  A    between atoms: N1_4  and  C4_5
REMARK    5  A    between atoms: N1_4  and  C5_6
REMARK    6  A    between atoms: C5_6  and  C6_7
REMARK    7  A    between atoms: C10_13  and  N3_14
REMARK    8  A    between atoms: C11_15  and  C12_17
REMARK    9  A    between atoms: C14_20  and  C15_21
REMARK                            x       y       z     vdW  Elec       q    Type
REMARK                         _______ _______ _______ _____ _____    ______ ____
ROOT
ATOM      1  N3  UNL     1       9.939  12.053  28.864  0.00  0.00    -0.307 N 
ATOM      2  C11 UNL     1       8.585  11.573  28.808  0.00  0.00    +0.246 C 
ATOM      3  O2  UNL     1       7.760  11.911  29.700  0.00  0.00    -0.270 OA
ATOM      4  H20 UNL     1      10.652  11.619  28.238  0.00  0.00    +0.149 HD
ENDROOT
BRANCH   1  11
ATOM      5  C6  UNL     1      11.855  12.485  33.369  0.00  0.00    +0.230 C 
ATOM      6  O1  UNL     1      11.983  11.239  33.529  0.00  0.00    -0.274 OA
ATOM      7  N2  UNL     1      11.687  13.019  32.039  0.00  0.00    -0.299 N 
ATOM      8  C7  UNL     1      12.037  14.418  31.742  0.00  0.00    +0.108 C 
ATOM      9  C8  UNL     1      12.368  14.600  30.256  0.00  0.00    +0.021 C 
ATOM     10  C9  UNL     1      11.232  14.114  29.338  0.00  0.00    +0.025 C 
ATOM     11  C10 UNL     1      10.413  12.941  29.931  0.00  0.00    +0.091 C 
ATOM     12  C17 UNL     1      11.222  12.137  30.958  0.00  0.00    +0.130 C 
BRANCH   5  13
ATOM     13  C5  UNL     1      11.925  13.380  34.579  0.00  0.00    +0.180 C 
BRANCH  13  14
ATOM     14  N1  UNL     1      10.948  12.949  35.603  0.00  0.00    -0.295 NA
ATOM     15  C4  UNL     1      10.000  14.040  35.917  0.00  0.00    +0.105 C 
BRANCH  14  17
ATOM     16  C1  UNL     1      13.127  12.593  36.754  0.00  0.00    +0.024 C 
ATOM     17  C2  UNL     1      11.611  12.363  36.801  0.00  0.00    +0.051 C 
ATOM     18  C3  UNL     1      11.290  10.873  37.024  0.00  0.00    +0.024 C 
ENDBRANCH  14  17
ENDBRANCH  13  14
ENDBRANCH   5  13
ENDBRANCH   1  11
BRANCH   2  19
ATOM     19  C12 UNL     1       8.141  10.680  27.721  0.00  0.00    +0.055 A 
ATOM     20  C13 UNL     1       7.423   9.502  27.839  0.00  0.00    +0.096 A 
ATOM     21  N4  UNL     1       7.218   8.968  26.620  0.00  0.00    -0.357 N 
ATOM     22  C14 UNL     1       7.800   9.793  25.727  0.00  0.00    +0.088 A 
ATOM     23  C16 UNL     1       8.385  10.866  26.372  0.00  0.00    +0.044 A 
ATOM     24  H22 UNL     1       6.708   8.081  26.414  0.00  0.00    +0.165 HD
BRANCH  22  25
ATOM     25  C15 UNL     1       7.804   9.562  24.277  0.00  0.00    +0.220 A 
ATOM     26  N5  UNL     1       8.240   8.431  23.689  0.00  0.00    -0.106 NA
ATOM     27  N6  UNL     1       8.071   8.638  22.393  0.00  0.00    -0.048 NA
ATOM     28  N7  UNL     1       7.556   9.842  22.210  0.00  0.00    -0.176 N 
ATOM     29  N8  UNL     1       7.373  10.455  23.366  0.00  0.00    -0.132 NA
ATOM     30  H23 UNL     1       7.326  10.252  21.279  0.00  0.00    +0.214 HD
ENDBRANCH  22  25
ENDBRANCH   2  19
TORSDOF 6
ENDMDL
MODEL 2
REMARK VINA RESULT:    -6.161     10.709     14.433
REMARK INTER + INTRA:          -8.993
REMARK INTER:                  -8.314
REMARK INTRA:                  -0.679
REMARK UNBOUND:                -0.671
REMARK  Name = /home/qwerty/github/datacon2025hack/step_04_hit_selection/docking/ligands/lig_645.pdb
REMARK  9 active torsions:
REMARK  status: ('A' for Active; 'I' for Inactive)
REMARK    1  A    between atoms: C1_1  and  C2_2
REMARK    2  A    between atoms: C2_2  and  C3_3
REMARK    3  A    between atoms: C2_2  and  N1_4
REMARK    4  A    between atoms: N1_4  and  C4_5
REMARK    5  A    between atoms: N1_4  and  C5_6
REMARK    6  A    between atoms: C5_6  and  C6_7
REMARK    7  A    between atoms: C10_13  and  N3_14
REMARK    8  A    between atoms: C11_15  and  C12_17
REMARK    9  A    between atoms: C14_20  and  C15_21
REMARK                            x       y       z     vdW  Elec       q    Type
REMARK                         _______ _______ _______ _____ _____    ______ ____
ROOT
ATOM      1  N3  UNL     1      20.504   8.960  35.615  0.00  0.00    -0.307 N 
ATOM      2  C11 UNL     1      19.322   9.163  36.407  0.00  0.00    +0.246 C 
ATOM      3  O2  UNL     1      18.800   8.192  37.018  0.00  0.00    -0.270 OA
ATOM      4  H20 UNL     1      20.812   9.720  34.968  0.00  0.00    +0.149 HD
ENDROOT
BRANCH   1  11
ATOM      5  C6  UNL     1      22.020   5.349  32.646  0.00  0.00    +0.230 C 
ATOM      6  O1  UNL     1      21.705   5.965  31.591  0.00  0.00    -0.274 OA
ATOM      7  N2  UNL     1      22.168   6.079  33.882  0.00  0.00    -0.299 N 
ATOM      8  C7  UNL     1      22.996   5.545  34.977  0.00  0.00    +0.108 C 
ATOM      9  C8  UNL     1      23.507   6.672  35.882  0.00  0.00    +0.021 C 
ATOM     10  C9  UNL     1      22.365   7.544  36.435  0.00  0.00    +0.025 C 
ATOM     11  C10 UNL     1      21.147   7.649  35.485  0.00  0.00    +0.091 C 
ATOM     12  C17 UNL     1      21.537   7.401  34.021  0.00  0.00    +0.130 C 
BRANCH   5  13
ATOM     13  C5  UNL     1      22.273   3.865  32.569  0.00  0.00    +0.180 C 
BRANCH  13  14
ATOM     14  N1  UNL     1      20.995   3.119  32.556  0.00  0.00    -0.295 NA
ATOM     15  C4  UNL     1      20.706   2.550  33.890  0.00  0.00    +0.105 C 
BRANCH  14  17
ATOM     16  C1  UNL     1      20.462   0.759  31.966  0.00  0.00    +0.024 C 
ATOM     17  C2  UNL     1      20.937   2.123  31.450  0.00  0.00    +0.051 C 
ATOM     18  C3  UNL     1      22.257   1.984  30.668  0.00  0.00    +0.024 C 
ENDBRANCH  14  17
ENDBRANCH  13  14
ENDBRANCH   5  13
ENDBRANCH   1  11
BRANCH   2  19
ATOM     19  C12 UNL     1      18.700  10.496  36.516  0.00  0.00    +0.055 A 
ATOM     20  C13 UNL     1      19.339  11.724  36.555  0.00  0.00    +0.096 A 
ATOM     21  N4  UNL     1      18.429  12.709  36.669  0.00  0.00    -0.357 N 
ATOM     22  C14 UNL     1      17.217  12.121  36.705  0.00  0.00    +0.088 A 
ATOM     23  C16 UNL     1      17.343  10.749  36.615  0.00  0.00    +0.044 A 
ATOM     24  H22 UNL     1      18.632  13.731  36.723  0.00  0.00    +0.165 HD
BRANCH  22  25
ATOM     25  C15 UNL     1      15.952  12.856  36.829  0.00  0.00    +0.220 A 
ATOM     26  N5  UNL     1      15.801  14.163  36.538  0.00  0.00    -0.106 NA
ATOM     27  N6  UNL     1      14.526  14.419  36.785  0.00  0.00    -0.048 NA
ATOM     28  N7  UNL     1      13.937  13.313  37.206  0.00  0.00    -0.176 N 
ATOM     29  N8  UNL     1      14.795  12.310  37.248  0.00  0.00    -0.132 NA
ATOM     30  H23 UNL     1      12.929  13.243  37.469  0.00  0.00    +0.214 HD
ENDBRANCH  22  25
ENDBRANCH   2  19
TORSDOF 6
ENDMDL
MODEL 3
REMARK VINA RESULT:    -6.155      2.839     10.588
REMARK INTER + INTRA:          -8.984
REMARK INTER:                  -8.265
REMARK INTRA:                  -0.719
REMARK UNBOUND:                -0.671
REMARK  Name = /home/qwerty/github/datacon2025hack/step_04_hit_selection/docking/ligands/lig_645.pdb
REMARK  9 active torsions:
REMARK  status: ('A' for Active; 'I' for Inactive)
REMARK    1  A    between atoms: C1_1  and  C2_2
REMARK    2  A    between atoms: C2_2  and  C3_3
REMARK    3  A    between atoms: C2_2  and  N1_4
REMARK    4  A    between atoms: N1_4  and  C4_5
REMARK    5  A    between atoms: N1_4  and  C5_6
REMARK    6  A    between atoms: C5_6  and  C6_7
REMARK    7  A    between atoms: C10_13  and  N3_14
REMARK    8  A    between atoms: C11_15  and  C12_17
REMARK    9  A    between atoms: C14_20  and  C15_21
REMARK                            x       y       z     vdW  Elec       q    Type
REMARK                         _______ _______ _______ _____ _____    ______ ____
ROOT
ATOM      1  N3  UNL     1      10.143  11.759  27.938  0.00  0.00    -0.307 N 
ATOM      2  C11 UNL     1      10.049  13.156  28.263  0.00  0.00    +0.246 C 
ATOM      3  O2  UNL     1       9.269  13.903  27.612  0.00  0.00    -0.270 OA
ATOM      4  H20 UNL     1      10.922  11.199  28.349  0.00  0.00    +0.149 HD
ENDROOT
BRANCH   1  11
ATOM      5  C6  UNL     1      10.103   9.114  23.796  0.00  0.00    +0.230 C 
ATOM      6  O1  UNL     1      11.347   8.905  23.814  0.00  0.00    -0.274 OA
ATOM      7  N2  UNL     1       9.433   9.534  25.003  0.00  0.00    -0.299 N 
ATOM      8  C7  UNL     1       7.989   9.304  25.180  0.00  0.00    +0.108 C 
ATOM      9  C8  UNL     1       7.618   9.244  26.666  0.00  0.00    +0.021 C 
ATOM     10  C9  UNL     1       8.070  10.498  27.436  0.00  0.00    +0.025 C 
ATOM     11  C10 UNL     1       9.354  11.149  26.864  0.00  0.00    +0.091 C 
ATOM     12  C17 UNL     1      10.215  10.139  26.092  0.00  0.00    +0.130 C 
BRANCH   5  13
ATOM     13  C5  UNL     1       9.348   8.878  22.513  0.00  0.00    +0.180 C 
BRANCH  13  14
ATOM     14  N1  UNL     1       9.530  10.014  21.584  0.00  0.00    -0.295 NA
ATOM     15  C4  UNL     1       8.263  10.756  21.407  0.00  0.00    +0.105 C 
BRANCH  14  17
ATOM     16  C1  UNL     1      10.466   8.092  20.306  0.00  0.00    +0.024 C 
ATOM     17  C2  UNL     1      10.169   9.597  20.304  0.00  0.00    +0.051 C 
ATOM     18  C3  UNL     1      11.432  10.404  19.947  0.00  0.00    +0.024 C 
ENDBRANCH  14  17
ENDBRANCH  13  14
ENDBRANCH   5  13
ENDBRANCH   1  11
BRANCH   2  19
ATOM     19  C12 UNL     1      10.859  13.740  29.350  0.00  0.00    +0.055 A 
ATOM     20  C13 UNL     1      11.944  14.590  29.229  0.00  0.00    +0.096 A 
ATOM     21  N4  UNL     1      12.423  14.896  30.449  0.00  0.00    -0.357 N 
ATOM     22  C14 UNL     1      11.655  14.247  31.346  0.00  0.00    +0.088 A 
ATOM     23  C16 UNL     1      10.674  13.517  30.703  0.00  0.00    +0.044 A 
ATOM     24  H22 UNL     1      13.238  15.516  30.653  0.00  0.00    +0.165 HD
BRANCH  22  25
ATOM     25  C15 UNL     1      11.853  14.317  32.799  0.00  0.00    +0.220 A 
ATOM     26  N5  UNL     1      13.049  14.203  33.409  0.00  0.00    -0.106 NA
ATOM     27  N6  UNL     1      12.782  14.321  34.700  0.00  0.00    -0.048 NA
ATOM     28  N7  UNL     1      11.482  14.498  34.859  0.00  0.00    -0.176 N 
ATOM     29  N8  UNL     1      10.863  14.502  33.692  0.00  0.00    -0.132 NA
ATOM     30  H23 UNL     1      11.009  14.618  35.781  0.00  0.00    +0.214 HD
ENDBRANCH  22  25
ENDBRANCH   2  19
TORSDOF 6
ENDMDL
MODEL 4
REMARK VINA RESULT:    -6.068     13.956     17.176
REMARK INTER + INTRA:          -8.867
REMARK INTER:                  -8.126
REMARK INTRA:                  -0.741
REMARK UNBOUND:                -0.671
REMARK  Name = /home/qwerty/github/datacon2025hack/step_04_hit_selection/docking/ligands/lig_645.pdb
REMARK  9 active torsions:
REMARK  status: ('A' for Active; 'I' for Inactive)
REMARK    1  A    between atoms: C1_1  and  C2_2
REMARK    2  A    between atoms: C2_2  and  C3_3
REMARK    3  A    between atoms: C2_2  and  N1_4
REMARK    4  A    between atoms: N1_4  and  C4_5
REMARK    5  A    between atoms: N1_4  and  C5_6
REMARK    6  A    between atoms: C5_6  and  C6_7
REMARK    7  A    between atoms: C10_13  and  N3_14
REMARK    8  A    between atoms: C11_15  and  C12_17
REMARK    9  A    between atoms: C14_20  and  C15_21
REMARK                            x       y       z     vdW  Elec       q    Type
REMARK                         _______ _______ _______ _____ _____    ______ ____
ROOT
ATOM      1  N3  UNL     1      18.083   0.458  26.644  0.00  0.00    -0.307 N 
ATOM      2  C11 UNL     1      18.681   1.681  27.105  0.00  0.00    +0.246 C 
ATOM      3  O2  UNL     1      18.079   2.777  26.944  0.00  0.00    -0.270 OA
ATOM      4  H20 UNL     1      18.668  -0.406  26.610  0.00  0.00    +0.149 HD
ENDROOT
BRANCH   1  11
ATOM      5  C6  UNL     1      15.553   0.292  22.434  0.00  0.00    +0.230 C 
ATOM      6  O1  UNL     1      16.586   0.189  21.715  0.00  0.00    -0.274 OA
ATOM      7  N2  UNL     1      15.632  -0.008  23.843  0.00  0.00    -0.299 N 
ATOM      8  C7  UNL     1      14.428  -0.396  24.597  0.00  0.00    +0.108 C 
ATOM      9  C8  UNL     1      14.794  -1.228  25.831  0.00  0.00    +0.021 C 
ATOM     10  C9  UNL     1      15.805  -0.512  26.744  0.00  0.00    +0.025 C 
ATOM     11  C10 UNL     1      16.774   0.426  25.984  0.00  0.00    +0.091 C 
ATOM     12  C17 UNL     1      16.940   0.011  24.515  0.00  0.00    +0.130 C 
BRANCH   5  13
ATOM     13  C5  UNL     1      14.254   0.689  21.780  0.00  0.00    +0.180 C 
BRANCH  13  14
ATOM     14  N1  UNL     1      14.171   2.159  21.637  0.00  0.00    -0.295 NA
ATOM     15  C4  UNL     1      13.003   2.692  22.372  0.00  0.00    +0.105 C 
BRANCH  14  17
ATOM     16  C1  UNL     1      15.650   3.059  19.847  0.00  0.00    +0.024 C 
ATOM     17  C2  UNL     1      14.235   2.590  20.213  0.00  0.00    +0.051 C 
ATOM     18  C3  UNL     1      13.190   3.657  19.837  0.00  0.00    +0.024 C 
ENDBRANCH  14  17
ENDBRANCH  13  14
ENDBRANCH   5  13
ENDBRANCH   1  11
BRANCH   2  19
ATOM     19  C12 UNL     1      20.001   1.679  27.765  0.00  0.00    +0.055 A 
ATOM     20  C13 UNL     1      20.594   2.714  28.467  0.00  0.00    +0.096 A 
ATOM     21  N4  UNL     1      21.805   2.331  28.910  0.00  0.00    -0.357 N 
ATOM     22  C14 UNL     1      21.992   1.062  28.496  0.00  0.00    +0.088 A 
ATOM     23  C16 UNL     1      20.895   0.622  27.780  0.00  0.00    +0.044 A 
ATOM     24  H22 UNL     1      22.470   2.913  29.466  0.00  0.00    +0.165 HD
BRANCH  22  25
ATOM     25  C15 UNL     1      23.201   0.277  28.774  0.00  0.00    +0.220 A 
ATOM     26  N5  UNL     1      23.244  -1.070  28.793  0.00  0.00    -0.106 NA
ATOM     27  N6  UNL     1      24.503  -1.362  29.080  0.00  0.00    -0.048 NA
ATOM     28  N7  UNL     1      25.186  -0.240  29.227  0.00  0.00    -0.176 N 
ATOM     29  N8  UNL     1      24.407   0.811  29.043  0.00  0.00    -0.132 NA
ATOM     30  H23 UNL     1      26.202  -0.192  29.456  0.00  0.00    +0.214 HD
ENDBRANCH  22  25
ENDBRANCH   2  19
TORSDOF 6
ENDMDL
MODEL 5
REMARK VINA RESULT:    -6.028      5.777      9.152
REMARK INTER + INTRA:          -8.813
REMARK INTER:                  -8.152
REMARK INTRA:                  -0.661
REMARK UNBOUND:                -0.671
REMARK  Name = /home/qwerty/github/datacon2025hack/step_04_hit_selection/docking/ligands/lig_645.pdb
REMARK  9 active torsions:
REMARK  status: ('A' for Active; 'I' for Inactive)
REMARK    1  A    between atoms: C1_1  and  C2_2
REMARK    2  A    between atoms: C2_2  and  C3_3
REMARK    3  A    between atoms: C2_2  and  N1_4
REMARK    4  A    between atoms: N1_4  and  C4_5
REMARK    5  A    between atoms: N1_4  and  C5_6
REMARK    6  A    between atoms: C5_6  and  C6_7
REMARK    7  A    between atoms: C10_13  and  N3_14
REMARK    8  A    between atoms: C11_15  and  C12_17
REMARK    9  A    between atoms: C14_20  and  C15_21
REMARK                            x       y       z     vdW  Elec       q    Type
REMARK                         _______ _______ _______ _____ _____    ______ ____
ROOT
ATOM      1  N3  UNL     1       9.706   6.349  22.810  0.00  0.00    -0.307 N 
ATOM      2  C11 UNL     1       9.214   5.010  22.627  0.00  0.00    +0.246 C 
ATOM      3  O2  UNL     1       8.013   4.739  22.897  0.00  0.00    -0.270 OA
ATOM      4  H20 UNL     1      10.736   6.516  22.768  0.00  0.00    +0.149 HD
ENDROOT
BRANCH   1  11
ATOM      5  C6  UNL     1       9.108  10.048  25.990  0.00  0.00    +0.230 C 
ATOM      6  O1  UNL     1      10.258   9.917  26.493  0.00  0.00    -0.274 OA
ATOM      7  N2  UNL     1       8.823   9.466  24.700  0.00  0.00    -0.299 N 
ATOM      8  C7  UNL     1       7.732   9.991  23.863  0.00  0.00    +0.108 C 
ATOM      9  C8  UNL     1       7.979   9.689  22.381  0.00  0.00    +0.021 C 
ATOM     10  C9  UNL     1       8.197   8.188  22.116  0.00  0.00    +0.025 C 
ATOM     11  C10 UNL     1       8.855   7.437  23.300  0.00  0.00    +0.091 C 
ATOM     12  C17 UNL     1       9.675   8.380  24.192  0.00  0.00    +0.130 C 
BRANCH   5  13
ATOM     13  C5  UNL     1       8.076  10.848  26.742  0.00  0.00    +0.180 C 
BRANCH  13  14
ATOM     14  N1  UNL     1       8.647  11.388  27.996  0.00  0.00    -0.295 NA
ATOM     15  C4  UNL     1       8.030  10.741  29.174  0.00  0.00    +0.105 C 
BRANCH  14  17
ATOM     16  C1  UNL     1      10.011  13.464  27.817  0.00  0.00    +0.024 C 
ATOM     17  C2  UNL     1       8.611  12.876  28.035  0.00  0.00    +0.051 C 
ATOM     18  C3  UNL     1       7.970  13.449  29.314  0.00  0.00    +0.024 C 
ENDBRANCH  14  17
ENDBRANCH  13  14
ENDBRANCH   5  13
ENDBRANCH   1  11
BRANCH   2  19
ATOM     19  C12 UNL     1      10.098   3.937  22.133  0.00  0.00    +0.055 A 
ATOM     20  C13 UNL     1       9.867   2.572  22.167  0.00  0.00    +0.096 A 
ATOM     21  N4  UNL     1      10.913   1.919  21.629  0.00  0.00    -0.357 N 
ATOM     22  C14 UNL     1      11.809   2.853  21.254  0.00  0.00    +0.088 A 
ATOM     23  C16 UNL     1      11.341   4.118  21.551  0.00  0.00    +0.044 A 
ATOM     24  H22 UNL     1      11.007   0.884  21.529  0.00  0.00    +0.165 HD
BRANCH  22  25
ATOM     25  C15 UNL     1      13.099   2.546  20.622  0.00  0.00    +0.220 A 
ATOM     26  N5  UNL     1      13.713   1.349  20.691  0.00  0.00    -0.106 NA
ATOM     27  N6  UNL     1      14.830   1.503  19.998  0.00  0.00    -0.048 NA
ATOM     28  N7  UNL     1      14.885   2.739  19.534  0.00  0.00    -0.176 N 
ATOM     29  N8  UNL     1      13.819   3.427  19.903  0.00  0.00    -0.132 NA
ATOM     30  H23 UNL     1      15.665   3.120  18.955  0.00  0.00    +0.214 HD
ENDBRANCH  22  25
ENDBRANCH   2  19
TORSDOF 6
ENDMDL
MODEL 6
REMARK VINA RESULT:    -5.794     13.603     14.552
REMARK INTER + INTRA:          -8.496
REMARK INTER:                  -7.819
REMARK INTRA:                  -0.677
REMARK UNBOUND:                -0.671
REMARK  Name = /home/qwerty/github/datacon2025hack/step_04_hit_selection/docking/ligands/lig_645.pdb
REMARK  9 active torsions:
REMARK  status: ('A' for Active; 'I' for Inactive)
REMARK    1  A    between atoms: C1_1  and  C2_2
REMARK    2  A    between atoms: C2_2  and  C3_3
REMARK    3  A    between atoms: C2_2  and  N1_4
REMARK    4  A    between atoms: N1_4  and  C4_5
REMARK    5  A    between atoms: N1_4  and  C5_6
REMARK    6  A    between atoms: C5_6  and  C6_7
REMARK    7  A    between atoms: C10_13  and  N3_14
REMARK    8  A    between atoms: C11_15  and  C12_17
REMARK    9  A    between atoms: C14_20  and  C15_21
REMARK                            x       y       z     vdW  Elec       q    Type
REMARK                         _______ _______ _______ _____ _____    ______ ____
ROOT
ATOM      1  N3  UNL     1      20.931   2.041  29.006  0.00  0.00    -0.307 N 
ATOM      2  C11 UNL     1      21.630   2.006  27.751  0.00  0.00    +0.246 C 
ATOM      3  O2  UNL     1      22.859   2.285  27.707  0.00  0.00    -0.270 OA
ATOM      4  H20 UNL     1      19.888   1.998  29.001  0.00  0.00    +0.149 HD
ENDROOT
BRANCH   1  11
ATOM      5  C6  UNL     1      22.636   5.574  31.966  0.00  0.00    +0.230 C 
ATOM      6  O1  UNL     1      22.214   6.512  31.234  0.00  0.00    -0.274 OA
ATOM      7  N2  UNL     1      22.092   4.247  31.809  0.00  0.00    -0.299 N 
ATOM      8  C7  UNL     1      22.152   3.274  32.913  0.00  0.00    +0.108 C 
ATOM      9  C8  UNL     1      21.043   2.225  32.784  0.00  0.00    +0.021 C 
ATOM     10  C9  UNL     1      21.067   1.508  31.422  0.00  0.00    +0.025 C 
ATOM     11  C10 UNL     1      21.596   2.390  30.265  0.00  0.00    +0.091 C 
ATOM     12  C17 UNL     1      21.414   3.887  30.554  0.00  0.00    +0.130 C 
BRANCH   5  13
ATOM     13  C5  UNL     1      23.674   5.885  33.014  0.00  0.00    +0.180 C 
BRANCH  13  14
ATOM     14  N1  UNL     1      23.599   7.308  33.416  0.00  0.00    -0.295 NA
ATOM     15  C4  UNL     1      24.844   8.020  33.056  0.00  0.00    +0.105 C 
BRANCH  14  17
ATOM     16  C1  UNL     1      23.668   6.270  35.679  0.00  0.00    +0.024 C 
ATOM     17  C2  UNL     1      23.202   7.469  34.842  0.00  0.00    +0.051 C 
ATOM     18  C3  UNL     1      21.696   7.725  35.043  0.00  0.00    +0.024 C 
ENDBRANCH  14  17
ENDBRANCH  13  14
ENDBRANCH   5  13
ENDBRANCH   1  11
BRANCH   2  19
ATOM     19  C12 UNL     1      20.931   1.651  26.501  0.00  0.00    +0.055 A 
ATOM     20  C13 UNL     1      21.151   2.168  25.236  0.00  0.00    +0.096 A 
ATOM     21  N4  UNL     1      20.305   1.600  24.357  0.00  0.00    -0.357 N 
ATOM     22  C14 UNL     1      19.547   0.728  25.049  0.00  0.00    +0.088 A 
ATOM     23  C16 UNL     1      19.903   0.731  26.384  0.00  0.00    +0.044 A 
ATOM     24  H22 UNL     1      20.250   1.805  23.335  0.00  0.00    +0.165 HD
BRANCH  22  25
ATOM     25  C15 UNL     1      18.491  -0.098  24.449  0.00  0.00    +0.220 A 
ATOM     26  N5  UNL     1      17.753   0.268  23.383  0.00  0.00    -0.106 NA
ATOM     27  N6  UNL     1      16.932  -0.749  23.176  0.00  0.00    -0.048 NA
ATOM     28  N7  UNL     1      17.167  -1.686  24.078  0.00  0.00    -0.176 N 
ATOM     29  N8  UNL     1      18.137  -1.318  24.896  0.00  0.00    -0.132 NA
ATOM     30  H23 UNL     1      16.655  -2.594  24.136  0.00  0.00    +0.214 HD
ENDBRANCH  22  25
ENDBRANCH   2  19
TORSDOF 6
ENDMDL
MODEL 7
REMARK VINA RESULT:    -5.710      7.916     11.221
REMARK INTER + INTRA:          -8.383
REMARK INTER:                  -7.749
REMARK INTRA:                  -0.634
REMARK UNBOUND:                -0.671
REMARK  Name = /home/qwerty/github/datacon2025hack/step_04_hit_selection/docking/ligands/lig_645.pdb
REMARK  9 active torsions:
REMARK  status: ('A' for Active; 'I' for Inactive)
REMARK    1  A    between atoms: C1_1  and  C2_2
REMARK    2  A    between atoms: C2_2  and  C3_3
REMARK    3  A    between atoms: C2_2  and  N1_4
REMARK    4  A    between atoms: N1_4  and  C4_5
REMARK    5  A    between atoms: N1_4  and  C5_6
REMARK    6  A    between atoms: C5_6  and  C6_7
REMARK    7  A    between atoms: C10_13  and  N3_14
REMARK    8  A    between atoms: C11_15  and  C12_17
REMARK    9  A    between atoms: C14_20  and  C15_21
REMARK                            x       y       z     vdW  Elec       q    Type
REMARK                         _______ _______ _______ _____ _____    ______ ____
ROOT
ATOM      1  N3  UNL     1      16.378  11.491  35.598  0.00  0.00    -0.307 N 
ATOM      2  C11 UNL     1      15.546  11.820  36.723  0.00  0.00    +0.246 C 
ATOM      3  O2  UNL     1      16.050  11.896  37.877  0.00  0.00    -0.270 OA
ATOM      4  H20 UNL     1      15.922  11.245  34.691  0.00  0.00    +0.149 HD
ENDROOT
BRANCH   1  11
ATOM      5  C6  UNL     1      20.277   8.829  34.232  0.00  0.00    +0.230 C 
ATOM      6  O1  UNL     1      19.631   8.163  33.376  0.00  0.00    -0.274 OA
ATOM      7  N2  UNL     1      19.739  10.077  34.717  0.00  0.00    -0.299 N 
ATOM      8  C7  UNL     1      20.624  11.107  35.287  0.00  0.00    +0.108 C 
ATOM      9  C8  UNL     1      19.999  12.501  35.165  0.00  0.00    +0.021 C 
ATOM     10  C9  UNL     1      18.598  12.574  35.798  0.00  0.00    +0.025 C 
ATOM     11  C10 UNL     1      17.816  11.239  35.732  0.00  0.00    +0.091 C 
ATOM     12  C17 UNL     1      18.299  10.347  34.580  0.00  0.00    +0.130 C 
BRANCH   5  13
ATOM     13  C5  UNL     1      21.617   8.314  34.690  0.00  0.00    +0.180 C 
BRANCH  13  14
ATOM     14  N1  UNL     1      21.456   7.065  35.468  0.00  0.00    -0.295 NA
ATOM     15  C4  UNL     1      21.289   7.363  36.908  0.00  0.00    +0.105 C 
BRANCH  14  17
ATOM     16  C1  UNL     1      23.835   6.790  34.784  0.00  0.00    +0.024 C 
ATOM     17  C2  UNL     1      22.533   6.079  35.177  0.00  0.00    +0.051 C 
ATOM     18  C3  UNL     1      22.144   5.027  34.120  0.00  0.00    +0.024 C 
ENDBRANCH  14  17
ENDBRANCH  13  14
ENDBRANCH   5  13
ENDBRANCH   1  11
BRANCH   2  19
ATOM     19  C12 UNL     1      14.102  12.067  36.554  0.00  0.00    +0.055 A 
ATOM     20  C13 UNL     1      13.053  11.311  37.049  0.00  0.00    +0.096 A 
ATOM     21  N4  UNL     1      11.881  11.853  36.673  0.00  0.00    -0.357 N 
ATOM     22  C14 UNL     1      12.171  12.947  35.941  0.00  0.00    +0.088 A 
ATOM     23  C16 UNL     1      13.539  13.113  35.843  0.00  0.00    +0.044 A 
ATOM     24  H22 UNL     1      10.931  11.488  36.905  0.00  0.00    +0.165 HD
BRANCH  22  25
ATOM     25  C15 UNL     1      11.159  13.824  35.338  0.00  0.00    +0.220 A 
ATOM     26  N5  UNL     1      10.039  14.234  35.964  0.00  0.00    -0.106 NA
ATOM     27  N6  UNL     1       9.417  14.995  35.078  0.00  0.00    -0.048 NA
ATOM     28  N7  UNL     1      10.132  15.040  33.968  0.00  0.00    -0.176 N 
ATOM     29  N8  UNL     1      11.232  14.319  34.089  0.00  0.00    -0.132 NA
ATOM     30  H23 UNL     1       9.863  15.573  33.112  0.00  0.00    +0.214 HD
ENDBRANCH  22  25
ENDBRANCH   2  19
TORSDOF 6
ENDMDL
MODEL 8
REMARK VINA RESULT:    -5.677      5.994     11.887
REMARK INTER + INTRA:          -8.339
REMARK INTER:                  -7.660
REMARK INTRA:                  -0.679
REMARK UNBOUND:                -0.671
REMARK  Name = /home/qwerty/github/datacon2025hack/step_04_hit_selection/docking/ligands/lig_645.pdb
REMARK  9 active torsions:
REMARK  status: ('A' for Active; 'I' for Inactive)
REMARK    1  A    between atoms: C1_1  and  C2_2
REMARK    2  A    between atoms: C2_2  and  C3_3
REMARK    3  A    between atoms: C2_2  and  N1_4
REMARK    4  A    between atoms: N1_4  and  C4_5
REMARK    5  A    between atoms: N1_4  and  C5_6
REMARK    6  A    between atoms: C5_6  and  C6_7
REMARK    7  A    between atoms: C10_13  and  N3_14
REMARK    8  A    between atoms: C11_15  and  C12_17
REMARK    9  A    between atoms: C14_20  and  C15_21
REMARK                            x       y       z     vdW  Elec       q    Type
REMARK                         _______ _______ _______ _____ _____    ______ ____
ROOT
ATOM      1  N3  UNL     1       8.699   7.030  24.072  0.00  0.00    -0.307 N 
ATOM      2  C11 UNL     1       8.794   8.459  24.199  0.00  0.00    +0.246 C 
ATOM      3  O2  UNL     1       9.207   9.151  23.229  0.00  0.00    -0.270 OA
ATOM      4  H20 UNL     1       8.542   6.459  24.932  0.00  0.00    +0.149 HD
ENDROOT
BRANCH   1  11
ATOM      5  C6  UNL     1      11.292   3.435  21.949  0.00  0.00    +0.230 C 
ATOM      6  O1  UNL     1      11.738   2.992  23.043  0.00  0.00    -0.274 OA
ATOM      7  N2  UNL     1      10.129   4.289  21.947  0.00  0.00    -0.299 N 
ATOM      8  C7  UNL     1       9.287   4.411  20.745  0.00  0.00    +0.108 C 
ATOM      9  C8  UNL     1       7.859   4.828  21.111  0.00  0.00    +0.021 C 
ATOM     10  C9  UNL     1       7.819   6.125  21.939  0.00  0.00    +0.025 C 
ATOM     11  C10 UNL     1       9.064   6.326  22.839  0.00  0.00    +0.091 C 
ATOM     12  C17 UNL     1       9.746   4.994  23.181  0.00  0.00    +0.130 C 
BRANCH   5  13
ATOM     13  C5  UNL     1      11.971   3.020  20.669  0.00  0.00    +0.180 C 
BRANCH  13  14
ATOM     14  N1  UNL     1      13.202   3.812  20.452  0.00  0.00    -0.295 NA
ATOM     15  C4  UNL     1      13.137   4.540  19.167  0.00  0.00    +0.105 C 
BRANCH  14  17
ATOM     16  C1  UNL     1      15.558   3.502  19.708  0.00  0.00    +0.024 C 
ATOM     17  C2  UNL     1      14.434   2.992  20.619  0.00  0.00    +0.051 C 
ATOM     18  C3  UNL     1      14.208   1.481  20.418  0.00  0.00    +0.024 C 
ENDBRANCH  14  17
ENDBRANCH  13  14
ENDBRANCH   5  13
ENDBRANCH   1  11
BRANCH   2  19
ATOM     19  C12 UNL     1       8.419   9.136  25.455  0.00  0.00    +0.055 A 
ATOM     20  C13 UNL     1       7.491   8.718  26.394  0.00  0.00    +0.096 A 
ATOM     21  N4  UNL     1       7.423   9.612  27.398  0.00  0.00    -0.357 N 
ATOM     22  C14 UNL     1       8.297  10.597  27.107  0.00  0.00    +0.088 A 
ATOM     23  C16 UNL     1       8.933  10.339  25.908  0.00  0.00    +0.044 A 
ATOM     24  H22 UNL     1       6.806   9.550  28.237  0.00  0.00    +0.165 HD
BRANCH  22  25
ATOM     25  C15 UNL     1       8.521  11.772  27.958  0.00  0.00    +0.220 A 
ATOM     26  N5  UNL     1       7.879  12.004  29.119  0.00  0.00    -0.106 NA
ATOM     27  N6  UNL     1       8.372  13.152  29.554  0.00  0.00    -0.048 NA
ATOM     28  N7  UNL     1       9.270  13.593  28.690  0.00  0.00    -0.176 N 
ATOM     29  N8  UNL     1       9.395  12.757  27.675  0.00  0.00    -0.132 NA
ATOM     30  H23 UNL     1       9.809  14.480  28.797  0.00  0.00    +0.214 HD
ENDBRANCH  22  25
ENDBRANCH   2  19
TORSDOF 6
ENDMDL
MODEL 9
REMARK VINA RESULT:    -5.594      5.091     11.401
REMARK INTER + INTRA:          -8.227
REMARK INTER:                  -7.567
REMARK INTRA:                  -0.659
REMARK UNBOUND:                -0.671
REMARK  Name = /home/qwerty/github/datacon2025hack/step_04_hit_selection/docking/ligands/lig_645.pdb
REMARK  9 active torsions:
REMARK  status: ('A' for Active; 'I' for Inactive)
REMARK    1  A    between atoms: C1_1  and  C2_2
REMARK    2  A    between atoms: C2_2  and  C3_3
REMARK    3  A    between atoms: C2_2  and  N1_4
REMARK    4  A    between atoms: N1_4  and  C4_5
REMARK    5  A    between atoms: N1_4  and  C5_6
REMARK    6  A    between atoms: C5_6  and  C6_7
REMARK    7  A    between atoms: C10_13  and  N3_14
REMARK    8  A    between atoms: C11_15  and  C12_17
REMARK    9  A    between atoms: C14_20  and  C15_21
REMARK                            x       y       z     vdW  Elec       q    Type
REMARK                         _______ _______ _______ _____ _____    ______ ____
ROOT
ATOM      1  N3  UNL     1      14.182  12.149  35.469  0.00  0.00    -0.307 N 
ATOM      2  C11 UNL     1      15.540  12.511  35.773  0.00  0.00    +0.246 C 
ATOM      3  O2  UNL     1      16.013  13.598  35.343  0.00  0.00    -0.270 OA
ATOM      4  H20 UNL     1      13.867  11.174  35.664  0.00  0.00    +0.149 HD
ENDROOT
BRANCH   1  11
ATOM      5  C6  UNL     1      11.387  12.644  31.457  0.00  0.00    +0.230 C 
ATOM      6  O1  UNL     1      11.551  11.447  31.089  0.00  0.00    -0.274 OA
ATOM      7  N2  UNL     1      11.668  13.014  32.823  0.00  0.00    -0.299 N 
ATOM      8  C7  UNL     1      11.039  14.202  33.424  0.00  0.00    +0.108 C 
ATOM      9  C8  UNL     1      10.966  14.075  34.949  0.00  0.00    +0.021 C 
ATOM     10  C9  UNL     1      12.343  13.807  35.583  0.00  0.00    +0.025 C 
ATOM     11  C10 UNL     1      13.303  13.007  34.668  0.00  0.00    +0.091 C 
ATOM     12  C17 UNL     1      12.541  12.158  33.640  0.00  0.00    +0.130 C 
BRANCH   5  13
ATOM     13  C5  UNL     1      10.861  13.642  30.458  0.00  0.00    +0.180 C 
BRANCH  13  14
ATOM     14  N1  UNL     1      11.895  13.965  29.450  0.00  0.00    -0.295 NA
ATOM     15  C4  UNL     1      12.925  14.859  30.022  0.00  0.00    +0.105 C 
BRANCH  14  17
ATOM     16  C1  UNL     1      10.266  13.473  27.632  0.00  0.00    +0.024 C 
ATOM     17  C2  UNL     1      11.303  14.463  28.177  0.00  0.00    +0.051 C 
ATOM     18  C3  UNL     1      12.347  14.810  27.099  0.00  0.00    +0.024 C 
ENDBRANCH  14  17
ENDBRANCH  13  14
ENDBRANCH   5  13
ENDBRANCH   1  11
BRANCH   2  19
ATOM     19  C12 UNL     1      16.399  11.625  36.581  0.00  0.00    +0.055 A 
ATOM     20  C13 UNL     1      16.262  11.313  37.923  0.00  0.00    +0.096 A 
ATOM     21  N4  UNL     1      17.249  10.480  38.301  0.00  0.00    -0.357 N 
ATOM     22  C14 UNL     1      18.014  10.259  37.214  0.00  0.00    +0.088 A 
ATOM     23  C16 UNL     1      17.521  10.954  36.127  0.00  0.00    +0.044 A 
ATOM     24  H22 UNL     1      17.390  10.086  39.258  0.00  0.00    +0.165 HD
BRANCH  22  25
ATOM     25  C15 UNL     1      19.205   9.400  37.210  0.00  0.00    +0.220 A 
ATOM     26  N5  UNL     1      20.307   9.633  36.470  0.00  0.00    -0.106 NA
ATOM     27  N6  UNL     1      21.125   8.633  36.759  0.00  0.00    -0.048 NA
ATOM     28  N7  UNL     1      20.539   7.833  37.634  0.00  0.00    -0.176 N 
ATOM     29  N8  UNL     1      19.334   8.279  37.943  0.00  0.00    -0.132 NA
ATOM     30  H23 UNL     1      20.970   6.968  38.027  0.00  0.00    +0.214 HD
ENDBRANCH  22  25
ENDBRANCH   2  19
TORSDOF 6
ENDMDL
