REMARK  Name = /home/qwerty/github/datacon2025hack/step_04_hit_selection/docking/ligands/lig_345.pdb
REMARK  5 active torsions:
REMARK  status: ('A' for Active; 'I' for Inactive)
REMARK    1  A    between atoms: N1_3  and  C2_4
REMARK    2  A    between atoms: C4_6  and  N2_7
REMARK    3  A    between atoms: N2_7  and  C5_8
REMARK    4  A    between atoms: N4_18  and  C14_19
REMARK    5  A    between atoms: C17_22  and  C18_23
REMARK                            x       y       z     vdW  Elec       q    Type
REMARK                         _______ _______ _______ _____ _____    ______ ____
ROOT
ATOM      1  O1  UNL     1       1.945  -2.141   2.276  0.00  0.00    -0.253 OA
ATOM      2  C1  UNL     1       1.734  -1.059   1.660  0.00  0.00    +0.303 C 
ATOM      3  N1  UNL     1       2.780  -0.080   1.564  0.00  0.00    -0.296 N 
ATOM      4  N3  UNL     1       0.451  -0.833   1.043  0.00  0.00    -0.283 N 
ATOM      5  C12 UNL     1       0.003   0.526   0.717  0.00  0.00    +0.128 C 
ATOM      6  C13 UNL     1      -1.508   0.663   0.937  0.00  0.00    +0.125 C 
ATOM      7  N4  UNL     1      -2.260  -0.434   0.307  0.00  0.00    -0.311 N 
ATOM      8  C24 UNL     1      -1.540  -1.595  -0.233  0.00  0.00    +0.125 C 
ATOM      9  C25 UNL     1      -0.381  -1.991   0.688  0.00  0.00    +0.128 C 
ATOM     10  H1  UNL     1       2.697   0.671   0.842  0.00  0.00    +0.151 HD
ENDROOT
BRANCH   7  11
ATOM     11  C14 UNL     1      -3.683  -0.307   0.085  0.00  0.00    +0.144 A 
ATOM     12  C15 UNL     1      -4.472   0.562   0.852  0.00  0.00    +0.047 A 
ATOM     13  C16 UNL     1      -5.838   0.651   0.601  0.00  0.00    +0.033 A 
ATOM     14  C17 UNL     1      -6.402  -0.118  -0.423  0.00  0.00    +0.096 A 
ATOM     15  N5  UNL     1      -5.596  -0.959  -1.125  0.00  0.00    -0.147 NA
ATOM     16  N6  UNL     1      -4.288  -1.048  -0.882  0.00  0.00    -0.134 NA
BRANCH  14  17
ATOM     17  C18 UNL     1      -7.852  -0.072  -0.728  0.00  0.00    +0.040 A 
ATOM     18  C19 UNL     1      -8.519  -1.259  -1.084  0.00  0.00    +0.051 A 
ATOM     19  C20 UNL     1      -9.887  -1.246  -1.371  0.00  0.00    +0.124 A 
ATOM     20  F1  UNL     1     -10.521  -2.399  -1.700  0.00  0.00    -0.205 F 
ATOM     21  C21 UNL     1     -10.603  -0.049  -1.316  0.00  0.00    +0.041 A 
ATOM     22  C22 UNL     1      -9.950   1.139  -0.985  0.00  0.00    +0.042 A 
ATOM     23  C23 UNL     1      -8.581   1.136  -0.696  0.00  0.00    +0.133 A 
ATOM     24  F2  UNL     1      -7.968   2.318  -0.436  0.00  0.00    -0.205 F 
ENDBRANCH  14  17
ENDBRANCH   7  11
BRANCH   3  25
ATOM     25  C2  UNL     1       4.059  -0.249   2.260  0.00  0.00    +0.078 C 
ATOM     26  C3  UNL     1       4.814   1.068   2.424  0.00  0.00    +0.044 C 
ATOM     27  C4  UNL     1       5.897   0.558   1.472  0.00  0.00    +0.074 C 
ATOM     28  C11 UNL     1       5.149  -0.766   1.326  0.00  0.00    +0.044 C 
BRANCH  27  29
ATOM     29  N2  UNL     1       5.953   1.303   0.208  0.00  0.00    -0.341 N 
ATOM     30  H6  UNL     1       5.362   2.159   0.101  0.00  0.00    +0.146 HD
BRANCH  29  31
ATOM     31  C5  UNL     1       6.813   0.940  -0.888  0.00  0.00    +0.027 A 
ATOM     32  C6  UNL     1       6.765   1.688  -2.077  0.00  0.00    +0.023 A 
ATOM     33  C7  UNL     1       7.587   1.357  -3.158  0.00  0.00    +0.002 A 
ATOM     34  C8  UNL     1       8.462   0.273  -3.065  0.00  0.00    +0.000 A 
ATOM     35  C9  UNL     1       8.520  -0.479  -1.889  0.00  0.00    +0.002 A 
ATOM     36  C10 UNL     1       7.701  -0.152  -0.805  0.00  0.00    +0.023 A 
ENDBRANCH  29  31
ENDBRANCH  27  29
ENDBRANCH   3  25
TORSDOF 5
