MODEL 1
REMARK VINA RESULT:    -6.183      0.000      0.000
REMARK INTER + INTRA:          -8.234
REMARK INTER:                  -7.629
REMARK INTRA:                  -0.605
REMARK UNBOUND:                -0.605
REMARK  Name = /home/qwerty/github/datacon2025hack/step_04_hit_selection/docking/ligands/lig_431.pdb
REMARK  6 active torsions:
REMARK  status: ('A' for Active; 'I' for Inactive)
REMARK    1  A    between atoms: C1_1  and  C2_2
REMARK    2  A    between atoms: C2_2  and  C3_3
REMARK    3  A    between atoms: C2_2  and  C4_4
REMARK    4  A    between atoms: C6_6  and  C7_7
REMARK    5  A    between atoms: C10_12  and  N2_13
REMARK    6  A    between atoms: C11_14  and  C12_16
REMARK                            x       y       z     vdW  Elec       q    Type
REMARK                         _______ _______ _______ _____ _____    ______ ____
ROOT
ATOM      1  C7  UNL     1      19.816   2.600  24.364  0.00  0.00    +0.285 C 
ATOM      2  O1  UNL     1      20.467   2.994  23.359  0.00  0.00    -0.267 OA
ATOM      3  N1  UNL     1      20.199   3.058  25.675  0.00  0.00    -0.293 N 
ATOM      4  C8  UNL     1      21.177   4.117  25.866  0.00  0.00    +0.110 C 
ATOM      5  C9  UNL     1      21.408   4.196  27.369  0.00  0.00    +0.043 C 
ATOM      6  C10 UNL     1      20.952   2.841  27.920  0.00  0.00    +0.092 C 
ATOM      7  C15 UNL     1      19.915   2.345  26.913  0.00  0.00    +0.130 C 
ENDROOT
BRANCH   1  10
ATOM      8  C4  UNL     1      17.432  -0.081  23.895  0.00  0.00    +0.087 A 
ATOM      9  C5  UNL     1      18.747   0.280  24.104  0.00  0.00    +0.081 A 
ATOM     10  C6  UNL     1      18.702   1.660  24.141  0.00  0.00    +0.222 A 
ATOM     11  O3  UNL     1      17.455   2.043  23.980  0.00  0.00    -0.350 OA
ATOM     12  N5  UNL     1      16.662   1.023  23.826  0.00  0.00    -0.082 NA
BRANCH   8  14
ATOM     13  C1  UNL     1      15.384  -1.502  23.949  0.00  0.00    +0.014 C 
ATOM     14  C2  UNL     1      16.908  -1.489  23.806  0.00  0.00    +0.035 C 
ATOM     15  C3  UNL     1      17.566  -2.369  24.872  0.00  0.00    +0.014 C 
ENDBRANCH   8  14
ENDBRANCH   1  10
BRANCH   6  16
ATOM     16  N2  UNL     1      22.077   1.900  28.000  0.00  0.00    -0.306 N 
ATOM     17  C11 UNL     1      22.101   0.829  28.956  0.00  0.00    +0.264 C 
ATOM     18  O2  UNL     1      21.150   0.688  29.772  0.00  0.00    -0.268 OA
ATOM     19  H14 UNL     1      22.890   2.013  27.352  0.00  0.00    +0.149 HD
BRANCH  17  20
ATOM     20  C12 UNL     1      23.231  -0.113  28.991  0.00  0.00    +0.147 A 
ATOM     21  C13 UNL     1      24.558   0.216  29.202  0.00  0.00    +0.054 A 
ATOM     22  C14 UNL     1      25.221  -0.991  29.148  0.00  0.00    +0.105 A 
ATOM     23  N3  UNL     1      24.325  -1.967  28.915  0.00  0.00    -0.284 N 
ATOM     24  N4  UNL     1      23.113  -1.445  28.818  0.00  0.00    -0.169 NA
ATOM     25  H17 UNL     1      24.535  -2.985  28.823  0.00  0.00    +0.188 HD
ENDBRANCH  17  20
ENDBRANCH   6  16
TORSDOF 4
ENDMDL
MODEL 2
REMARK VINA RESULT:    -6.067      5.133      8.778
REMARK INTER + INTRA:          -8.092
REMARK INTER:                  -7.586
REMARK INTRA:                  -0.506
REMARK UNBOUND:                -0.605
REMARK  Name = /home/qwerty/github/datacon2025hack/step_04_hit_selection/docking/ligands/lig_431.pdb
REMARK  6 active torsions:
REMARK  status: ('A' for Active; 'I' for Inactive)
REMARK    1  A    between atoms: C1_1  and  C2_2
REMARK    2  A    between atoms: C2_2  and  C3_3
REMARK    3  A    between atoms: C2_2  and  C4_4
REMARK    4  A    between atoms: C6_6  and  C7_7
REMARK    5  A    between atoms: C10_12  and  N2_13
REMARK    6  A    between atoms: C11_14  and  C12_16
REMARK                            x       y       z     vdW  Elec       q    Type
REMARK                         _______ _______ _______ _____ _____    ______ ____
ROOT
ATOM      1  C7  UNL     1      19.696   3.128  33.614  0.00  0.00    +0.285 C 
ATOM      2  O1  UNL     1      19.356   2.379  34.570  0.00  0.00    -0.267 OA
ATOM      3  N1  UNL     1      19.488   2.681  32.260  0.00  0.00    -0.293 N 
ATOM      4  C8  UNL     1      18.715   1.487  31.953  0.00  0.00    +0.110 C 
ATOM      5  C9  UNL     1      18.860   1.280  30.452  0.00  0.00    +0.043 C 
ATOM      6  C10 UNL     1      20.122   2.052  30.056  0.00  0.00    +0.092 C 
ATOM      7  C15 UNL     1      20.247   3.152  31.110  0.00  0.00    +0.130 C 
ENDROOT
BRANCH   1  10
ATOM      8  C4  UNL     1      21.676   6.060  34.371  0.00  0.00    +0.087 A 
ATOM      9  C5  UNL     1      21.659   4.704  34.120  0.00  0.00    +0.081 A 
ATOM     10  C6  UNL     1      20.318   4.425  33.939  0.00  0.00    +0.222 A 
ATOM     11  O3  UNL     1      19.637   5.542  34.065  0.00  0.00    -0.350 OA
ATOM     12  N5  UNL     1      20.420   6.547  34.328  0.00  0.00    -0.082 NA
BRANCH   8  14
ATOM     13  C1  UNL     1      23.605   6.464  35.900  0.00  0.00    +0.014 C 
ATOM     14  C2  UNL     1      22.903   6.897  34.609  0.00  0.00    +0.035 C 
ATOM     15  C3  UNL     1      22.531   8.382  34.659  0.00  0.00    +0.014 C 
ENDBRANCH   8  14
ENDBRANCH   1  10
BRANCH   6  16
ATOM     16  N2  UNL     1      21.303   1.179  30.086  0.00  0.00    -0.306 N 
ATOM     17  C11 UNL     1      21.892   0.662  28.884  0.00  0.00    +0.264 C 
ATOM     18  O2  UNL     1      21.384   0.934  27.762  0.00  0.00    -0.268 OA
ATOM     19  H14 UNL     1      21.726   0.917  31.006  0.00  0.00    +0.149 HD
BRANCH  17  20
ATOM     20  C12 UNL     1      23.093  -0.188  28.948  0.00  0.00    +0.147 A 
ATOM     21  C13 UNL     1      24.385   0.248  29.173  0.00  0.00    +0.054 A 
ATOM     22  C14 UNL     1      25.143  -0.902  29.145  0.00  0.00    +0.105 A 
ATOM     23  N3  UNL     1      24.331  -1.949  28.913  0.00  0.00    -0.284 N 
ATOM     24  N4  UNL     1      23.083  -1.526  28.792  0.00  0.00    -0.169 NA
ATOM     25  H17 UNL     1      24.622  -2.948  28.838  0.00  0.00    +0.188 HD
ENDBRANCH  17  20
ENDBRANCH   6  16
TORSDOF 4
ENDMDL
MODEL 3
REMARK VINA RESULT:    -5.896      5.585      8.638
REMARK INTER + INTRA:          -7.880
REMARK INTER:                  -7.860
REMARK INTRA:                  -0.020
REMARK UNBOUND:                -0.605
REMARK  Name = /home/qwerty/github/datacon2025hack/step_04_hit_selection/docking/ligands/lig_431.pdb
REMARK  6 active torsions:
REMARK  status: ('A' for Active; 'I' for Inactive)
REMARK    1  A    between atoms: C1_1  and  C2_2
REMARK    2  A    between atoms: C2_2  and  C3_3
REMARK    3  A    between atoms: C2_2  and  C4_4
REMARK    4  A    between atoms: C6_6  and  C7_7
REMARK    5  A    between atoms: C10_12  and  N2_13
REMARK    6  A    between atoms: C11_14  and  C12_16
REMARK                            x       y       z     vdW  Elec       q    Type
REMARK                         _______ _______ _______ _____ _____    ______ ____
ROOT
ATOM      1  C7  UNL     1      20.592   3.065  32.413  0.00  0.00    +0.285 C 
ATOM      2  O1  UNL     1      19.366   3.231  32.655  0.00  0.00    -0.267 OA
ATOM      3  N1  UNL     1      21.562   3.885  33.093  0.00  0.00    -0.293 N 
ATOM      4  C8  UNL     1      21.195   4.756  34.199  0.00  0.00    +0.110 C 
ATOM      5  C9  UNL     1      22.451   5.547  34.532  0.00  0.00    +0.043 C 
ATOM      6  C10 UNL     1      23.323   5.473  33.275  0.00  0.00    +0.092 C 
ATOM      7  C15 UNL     1      22.896   4.176  32.587  0.00  0.00    +0.130 C 
ENDROOT
BRANCH   1  10
ATOM      8  C4  UNL     1      21.954   0.838  29.907  0.00  0.00    +0.087 A 
ATOM      9  C5  UNL     1      22.098   2.010  30.621  0.00  0.00    +0.081 A 
ATOM     10  C6  UNL     1      20.969   2.046  31.416  0.00  0.00    +0.222 A 
ATOM     11  O3  UNL     1      20.254   0.969  31.177  0.00  0.00    -0.350 OA
ATOM     12  N5  UNL     1      20.814   0.219  30.273  0.00  0.00    -0.082 NA
BRANCH   8  14
ATOM     13  C1  UNL     1      22.860  -1.240  28.868  0.00  0.00    +0.014 C 
ATOM     14  C2  UNL     1      22.934   0.289  28.907  0.00  0.00    +0.035 C 
ATOM     15  C3  UNL     1      24.353   0.760  29.239  0.00  0.00    +0.014 C 
ENDBRANCH   8  14
ENDBRANCH   1  10
BRANCH   6  16
ATOM     16  N2  UNL     1      23.076   6.622  32.395  0.00  0.00    -0.306 N 
ATOM     17  C11 UNL     1      23.878   7.811  32.460  0.00  0.00    +0.264 C 
ATOM     18  O2  UNL     1      24.811   7.899  33.304  0.00  0.00    -0.268 OA
ATOM     19  H14 UNL     1      22.291   6.584  31.705  0.00  0.00    +0.149 HD
BRANCH  17  20
ATOM     20  C12 UNL     1      23.622   8.935  31.544  0.00  0.00    +0.147 A 
ATOM     21  C13 UNL     1      24.485   9.983  31.283  0.00  0.00    +0.054 A 
ATOM     22  C14 UNL     1      23.806  10.764  30.373  0.00  0.00    +0.105 A 
ATOM     23  N3  UNL     1      22.612  10.199  30.123  0.00  0.00    -0.284 N 
ATOM     24  N4  UNL     1      22.490   9.086  30.830  0.00  0.00    -0.169 NA
ATOM     25  H17 UNL     1      21.882  10.565  29.474  0.00  0.00    +0.188 HD
ENDBRANCH  17  20
ENDBRANCH   6  16
TORSDOF 4
ENDMDL
MODEL 4
REMARK VINA RESULT:    -5.694      8.693     11.592
REMARK INTER + INTRA:          -7.631
REMARK INTER:                  -7.101
REMARK INTRA:                  -0.530
REMARK UNBOUND:                -0.605
REMARK  Name = /home/qwerty/github/datacon2025hack/step_04_hit_selection/docking/ligands/lig_431.pdb
REMARK  6 active torsions:
REMARK  status: ('A' for Active; 'I' for Inactive)
REMARK    1  A    between atoms: C1_1  and  C2_2
REMARK    2  A    between atoms: C2_2  and  C3_3
REMARK    3  A    between atoms: C2_2  and  C4_4
REMARK    4  A    between atoms: C6_6  and  C7_7
REMARK    5  A    between atoms: C10_12  and  N2_13
REMARK    6  A    between atoms: C11_14  and  C12_16
REMARK                            x       y       z     vdW  Elec       q    Type
REMARK                         _______ _______ _______ _____ _____    ______ ____
ROOT
ATOM      1  C7  UNL     1      24.361   7.743  20.717  0.00  0.00    +0.285 C 
ATOM      2  O1  UNL     1      25.539   7.295  20.756  0.00  0.00    -0.267 OA
ATOM      3  N1  UNL     1      24.115   9.026  20.109  0.00  0.00    -0.293 N 
ATOM      4  C8  UNL     1      25.142   9.731  19.357  0.00  0.00    +0.110 C 
ATOM      5  C9  UNL     1      24.542  11.088  19.017  0.00  0.00    +0.043 C 
ATOM      6  C10 UNL     1      23.411  11.296  20.029  0.00  0.00    +0.092 C 
ATOM      7  C15 UNL     1      22.979   9.882  20.419  0.00  0.00    +0.130 C 
ENDROOT
BRANCH   1  10
ATOM      8  C4  UNL     1      21.605   5.626  21.723  0.00  0.00    +0.087 A 
ATOM      9  C5  UNL     1      22.307   6.202  20.685  0.00  0.00    +0.081 A 
ATOM     10  C6  UNL     1      23.291   6.932  21.325  0.00  0.00    +0.222 A 
ATOM     11  O3  UNL     1      23.159   6.765  22.622  0.00  0.00    -0.350 OA
ATOM     12  N5  UNL     1      22.153   5.988  22.900  0.00  0.00    -0.082 NA
BRANCH   8  14
ATOM     13  C1  UNL     1      19.187   5.459  21.135  0.00  0.00    +0.014 C 
ATOM     14  C2  UNL     1      20.434   4.692  21.584  0.00  0.00    +0.035 C 
ATOM     15  C3  UNL     1      20.180   3.958  22.903  0.00  0.00    +0.014 C 
ENDBRANCH   8  14
ENDBRANCH   1  10
BRANCH   6  16
ATOM     16  N2  UNL     1      23.889  12.028  21.209  0.00  0.00    -0.306 N 
ATOM     17  C11 UNL     1      23.384  13.328  21.548  0.00  0.00    +0.264 C 
ATOM     18  O2  UNL     1      22.522  13.884  20.814  0.00  0.00    -0.268 OA
ATOM     19  H14 UNL     1      24.622  11.600  21.818  0.00  0.00    +0.149 HD
BRANCH  17  20
ATOM     20  C12 UNL     1      23.864  14.023  22.754  0.00  0.00    +0.147 A 
ATOM     21  C13 UNL     1      23.280  13.974  24.007  0.00  0.00    +0.054 A 
ATOM     22  C14 UNL     1      24.085  14.773  24.789  0.00  0.00    +0.105 A 
ATOM     23  N3  UNL     1      25.082  15.260  24.029  0.00  0.00    -0.284 N 
ATOM     24  N4  UNL     1      24.957  14.810  22.790  0.00  0.00    -0.169 NA
ATOM     25  H17 UNL     1      25.845  15.895  24.349  0.00  0.00    +0.188 HD
ENDBRANCH  17  20
ENDBRANCH   6  16
TORSDOF 4
ENDMDL
MODEL 5
REMARK VINA RESULT:    -5.658      4.249      7.757
REMARK INTER + INTRA:          -7.586
REMARK INTER:                  -7.379
REMARK INTRA:                  -0.207
REMARK UNBOUND:                -0.605
REMARK  Name = /home/qwerty/github/datacon2025hack/step_04_hit_selection/docking/ligands/lig_431.pdb
REMARK  6 active torsions:
REMARK  status: ('A' for Active; 'I' for Inactive)
REMARK    1  A    between atoms: C1_1  and  C2_2
REMARK    2  A    between atoms: C2_2  and  C3_3
REMARK    3  A    between atoms: C2_2  and  C4_4
REMARK    4  A    between atoms: C6_6  and  C7_7
REMARK    5  A    between atoms: C10_12  and  N2_13
REMARK    6  A    between atoms: C11_14  and  C12_16
REMARK                            x       y       z     vdW  Elec       q    Type
REMARK                         _______ _______ _______ _____ _____    ______ ____
ROOT
ATOM      1  C7  UNL     1      20.467   2.350  24.658  0.00  0.00    +0.285 C 
ATOM      2  O1  UNL     1      20.077   1.361  23.981  0.00  0.00    -0.267 OA
ATOM      3  N1  UNL     1      20.244   3.682  24.155  0.00  0.00    -0.293 N 
ATOM      4  C8  UNL     1      19.406   3.935  22.993  0.00  0.00    +0.110 C 
ATOM      5  C9  UNL     1      19.549   5.422  22.701  0.00  0.00    +0.043 C 
ATOM      6  C10 UNL     1      20.857   5.844  23.378  0.00  0.00    +0.092 C 
ATOM      7  C15 UNL     1      21.037   4.846  24.523  0.00  0.00    +0.130 C 
ENDROOT
BRANCH   1  10
ATOM      8  C4  UNL     1      21.806   1.338  27.864  0.00  0.00    +0.087 A 
ATOM      9  C5  UNL     1      20.803   1.196  26.927  0.00  0.00    +0.081 A 
ATOM     10  C6  UNL     1      21.160   2.086  25.933  0.00  0.00    +0.222 A 
ATOM     11  O3  UNL     1      22.284   2.672  26.279  0.00  0.00    -0.350 OA
ATOM     12  N5  UNL     1      22.702   2.250  27.437  0.00  0.00    -0.082 NA
BRANCH   8  14
ATOM     13  C1  UNL     1      22.521   1.449  30.250  0.00  0.00    +0.014 C 
ATOM     14  C2  UNL     1      21.927   0.566  29.149  0.00  0.00    +0.035 C 
ATOM     15  C3  UNL     1      22.777  -0.689  28.936  0.00  0.00    +0.014 C 
ENDBRANCH   8  14
ENDBRANCH   1  10
BRANCH   6  16
ATOM     16  N2  UNL     1      21.985   5.757  22.442  0.00  0.00    -0.306 N 
ATOM     17  C11 UNL     1      22.318   6.837  21.556  0.00  0.00    +0.264 C 
ATOM     18  O2  UNL     1      21.621   7.888  21.550  0.00  0.00    -0.268 OA
ATOM     19  H14 UNL     1      22.561   4.885  22.410  0.00  0.00    +0.149 HD
BRANCH  17  20
ATOM     20  C12 UNL     1      23.473   6.728  20.650  0.00  0.00    +0.147 A 
ATOM     21  C13 UNL     1      24.752   7.188  20.905  0.00  0.00    +0.054 A 
ATOM     22  C14 UNL     1      25.466   6.855  19.775  0.00  0.00    +0.105 A 
ATOM     23  N3  UNL     1      24.643   6.236  18.910  0.00  0.00    -0.284 N 
ATOM     24  N4  UNL     1      23.429   6.154  19.432  0.00  0.00    -0.169 NA
ATOM     25  H17 UNL     1      24.903   5.870  17.968  0.00  0.00    +0.188 HD
ENDBRANCH  17  20
ENDBRANCH   6  16
TORSDOF 4
ENDMDL
MODEL 6
REMARK VINA RESULT:    -5.615      2.304      6.976
REMARK INTER + INTRA:          -7.534
REMARK INTER:                  -6.983
REMARK INTRA:                  -0.550
REMARK UNBOUND:                -0.605
REMARK  Name = /home/qwerty/github/datacon2025hack/step_04_hit_selection/docking/ligands/lig_431.pdb
REMARK  6 active torsions:
REMARK  status: ('A' for Active; 'I' for Inactive)
REMARK    1  A    between atoms: C1_1  and  C2_2
REMARK    2  A    between atoms: C2_2  and  C3_3
REMARK    3  A    between atoms: C2_2  and  C4_4
REMARK    4  A    between atoms: C6_6  and  C7_7
REMARK    5  A    between atoms: C10_12  and  N2_13
REMARK    6  A    between atoms: C11_14  and  C12_16
REMARK                            x       y       z     vdW  Elec       q    Type
REMARK                         _______ _______ _______ _____ _____    ______ ____
ROOT
ATOM      1  C7  UNL     1      19.805   3.391  26.153  0.00  0.00    +0.285 C 
ATOM      2  O1  UNL     1      19.363   4.504  26.545  0.00  0.00    -0.267 OA
ATOM      3  N1  UNL     1      19.173   2.735  25.037  0.00  0.00    -0.293 N 
ATOM      4  C8  UNL     1      18.175   3.402  24.216  0.00  0.00    +0.110 C 
ATOM      5  C9  UNL     1      17.654   2.340  23.258  0.00  0.00    +0.043 C 
ATOM      6  C10 UNL     1      17.995   0.999  23.916  0.00  0.00    +0.092 C 
ATOM      7  C15 UNL     1      19.211   1.299  24.794  0.00  0.00    +0.130 C 
ENDROOT
BRANCH   1  10
ATOM      8  C4  UNL     1      22.244   1.640  28.173  0.00  0.00    +0.087 A 
ATOM      9  C5  UNL     1      20.913   1.830  27.865  0.00  0.00    +0.081 A 
ATOM     10  C6  UNL     1      20.943   2.802  26.883  0.00  0.00    +0.222 A 
ATOM     11  O3  UNL     1      22.196   3.121  26.648  0.00  0.00    -0.350 OA
ATOM     12  N5  UNL     1      23.008   2.444  27.407  0.00  0.00    -0.082 NA
BRANCH   8  14
ATOM     13  C1  UNL     1      24.306   0.793  29.291  0.00  0.00    +0.014 C 
ATOM     14  C2  UNL     1      22.786   0.653  29.170  0.00  0.00    +0.035 C 
ATOM     15  C3  UNL     1      22.398  -0.773  28.771  0.00  0.00    +0.014 C 
ENDBRANCH   8  14
ENDBRANCH   1  10
BRANCH   6  16
ATOM     16  N2  UNL     1      16.878   0.518  24.739  0.00  0.00    -0.306 N 
ATOM     17  C11 UNL     1      16.670  -0.881  24.988  0.00  0.00    +0.264 C 
ATOM     18  O2  UNL     1      17.444  -1.736  24.479  0.00  0.00    -0.268 OA
ATOM     19  H14 UNL     1      16.207   1.206  25.150  0.00  0.00    +0.149 HD
BRANCH  17  20
ATOM     20  C12 UNL     1      15.556  -1.328  25.840  0.00  0.00    +0.147 A 
ATOM     21  C13 UNL     1      14.623  -2.296  25.516  0.00  0.00    +0.054 A 
ATOM     22  C14 UNL     1      13.801  -2.360  26.620  0.00  0.00    +0.105 A 
ATOM     23  N3  UNL     1      14.234  -1.474  27.534  0.00  0.00    -0.284 N 
ATOM     24  N4  UNL     1      15.301  -0.842  27.071  0.00  0.00    -0.169 NA
ATOM     25  H17 UNL     1      13.809  -1.299  28.470  0.00  0.00    +0.188 HD
ENDBRANCH  17  20
ENDBRANCH   6  16
TORSDOF 4
ENDMDL
MODEL 7
REMARK VINA RESULT:    -5.360      9.104     12.649
REMARK INTER + INTRA:          -7.219
REMARK INTER:                  -6.725
REMARK INTRA:                  -0.494
REMARK UNBOUND:                -0.605
REMARK  Name = /home/qwerty/github/datacon2025hack/step_04_hit_selection/docking/ligands/lig_431.pdb
REMARK  6 active torsions:
REMARK  status: ('A' for Active; 'I' for Inactive)
REMARK    1  A    between atoms: C1_1  and  C2_2
REMARK    2  A    between atoms: C2_2  and  C3_3
REMARK    3  A    between atoms: C2_2  and  C4_4
REMARK    4  A    between atoms: C6_6  and  C7_7
REMARK    5  A    between atoms: C10_12  and  N2_13
REMARK    6  A    between atoms: C11_14  and  C12_16
REMARK                            x       y       z     vdW  Elec       q    Type
REMARK                         _______ _______ _______ _____ _____    ______ ____
ROOT
ATOM      1  C7  UNL     1      22.324  12.915  20.868  0.00  0.00    +0.285 C 
ATOM      2  O1  UNL     1      21.184  13.360  20.569  0.00  0.00    -0.267 OA
ATOM      3  N1  UNL     1      22.869  11.811  20.118  0.00  0.00    -0.293 N 
ATOM      4  C8  UNL     1      22.242  11.324  18.899  0.00  0.00    +0.110 C 
ATOM      5  C9  UNL     1      23.023  10.079  18.506  0.00  0.00    +0.043 C 
ATOM      6  C10 UNL     1      23.721   9.616  19.788  0.00  0.00    +0.092 C 
ATOM      7  C15 UNL     1      23.875  10.888  20.623  0.00  0.00    +0.130 C 
ENDROOT
BRANCH   1  10
ATOM      8  C4  UNL     1      23.654  14.325  23.923  0.00  0.00    +0.087 A 
ATOM      9  C5  UNL     1      22.584  13.729  23.289  0.00  0.00    +0.081 A 
ATOM     10  C6  UNL     1      23.037  13.539  21.998  0.00  0.00    +0.222 A 
ATOM     11  O3  UNL     1      24.272  13.981  21.918  0.00  0.00    -0.350 OA
ATOM     12  N5  UNL     1      24.677  14.463  23.057  0.00  0.00    -0.082 NA
BRANCH   8  14
ATOM     13  C1  UNL     1      22.966  13.697  26.237  0.00  0.00    +0.014 C 
ATOM     14  C2  UNL     1      23.711  14.720  25.374  0.00  0.00    +0.035 C 
ATOM     15  C3  UNL     1      23.130  16.124  25.564  0.00  0.00    +0.014 C 
ENDBRANCH   8  14
ENDBRANCH   1  10
BRANCH   6  16
ATOM     16  N2  UNL     1      22.903   8.630  20.506  0.00  0.00    -0.306 N 
ATOM     17  C11 UNL     1      23.373   7.297  20.758  0.00  0.00    +0.264 C 
ATOM     18  O2  UNL     1      24.507   6.936  20.341  0.00  0.00    -0.268 OA
ATOM     19  H14 UNL     1      21.948   8.897  20.838  0.00  0.00    +0.149 HD
BRANCH  17  20
ATOM     20  C12 UNL     1      22.538   6.341  21.505  0.00  0.00    +0.147 A 
ATOM     21  C13 UNL     1      22.413   6.275  22.880  0.00  0.00    +0.054 A 
ATOM     22  C14 UNL     1      21.533   5.236  23.092  0.00  0.00    +0.105 A 
ATOM     23  N3  UNL     1      21.169   4.727  21.902  0.00  0.00    -0.284 N 
ATOM     24  N4  UNL     1      21.774   5.391  20.930  0.00  0.00    -0.169 NA
ATOM     25  H17 UNL     1      20.512   3.932  21.747  0.00  0.00    +0.188 HD
ENDBRANCH  17  20
ENDBRANCH   6  16
TORSDOF 4
ENDMDL
MODEL 8
REMARK VINA RESULT:    -5.308      8.264     11.267
REMARK INTER + INTRA:          -7.155
REMARK INTER:                  -6.595
REMARK INTRA:                  -0.559
REMARK UNBOUND:                -0.605
REMARK  Name = /home/qwerty/github/datacon2025hack/step_04_hit_selection/docking/ligands/lig_431.pdb
REMARK  6 active torsions:
REMARK  status: ('A' for Active; 'I' for Inactive)
REMARK    1  A    between atoms: C1_1  and  C2_2
REMARK    2  A    between atoms: C2_2  and  C3_3
REMARK    3  A    between atoms: C2_2  and  C4_4
REMARK    4  A    between atoms: C6_6  and  C7_7
REMARK    5  A    between atoms: C10_12  and  N2_13
REMARK    6  A    between atoms: C11_14  and  C12_16
REMARK                            x       y       z     vdW  Elec       q    Type
REMARK                         _______ _______ _______ _____ _____    ______ ____
ROOT
ATOM      1  C7  UNL     1      23.689   6.118  33.442  0.00  0.00    +0.285 C 
ATOM      2  O1  UNL     1      24.676   5.938  34.205  0.00  0.00    -0.267 OA
ATOM      3  N1  UNL     1      23.507   7.404  32.817  0.00  0.00    -0.293 N 
ATOM      4  C8  UNL     1      24.529   8.437  32.870  0.00  0.00    +0.110 C 
ATOM      5  C9  UNL     1      23.900   9.669  32.234  0.00  0.00    +0.043 C 
ATOM      6  C10 UNL     1      22.388   9.442  32.321  0.00  0.00    +0.092 C 
ATOM      7  C15 UNL     1      22.227   7.922  32.354  0.00  0.00    +0.130 C 
ENDROOT
BRANCH   1  10
ATOM      8  C4  UNL     1      21.589   3.329  32.494  0.00  0.00    +0.087 A 
ATOM      9  C5  UNL     1      22.549   4.243  32.110  0.00  0.00    +0.081 A 
ATOM     10  C6  UNL     1      22.749   4.998  33.249  0.00  0.00    +0.222 A 
ATOM     11  O3  UNL     1      21.973   4.534  34.202  0.00  0.00    -0.350 OA
ATOM     12  N5  UNL     1      21.258   3.530  33.785  0.00  0.00    -0.082 NA
BRANCH   8  14
ATOM     13  C1  UNL     1      20.514   1.079  32.503  0.00  0.00    +0.014 C 
ATOM     14  C2  UNL     1      21.023   2.232  31.634  0.00  0.00    +0.035 C 
ATOM     15  C3  UNL     1      22.077   1.742  30.636  0.00  0.00    +0.014 C 
ENDBRANCH   8  14
ENDBRANCH   1  10
BRANCH   6  16
ATOM     16  N2  UNL     1      21.836  10.040  33.544  0.00  0.00    -0.306 N 
ATOM     17  C11 UNL     1      20.612  10.790  33.533  0.00  0.00    +0.264 C 
ATOM     18  O2  UNL     1      19.990  10.971  32.451  0.00  0.00    -0.268 OA
ATOM     19  H14 UNL     1      22.348   9.927  34.448  0.00  0.00    +0.149 HD
BRANCH  17  20
ATOM     20  C12 UNL     1      20.072  11.353  34.781  0.00  0.00    +0.147 A 
ATOM     21  C13 UNL     1      18.757  11.278  35.204  0.00  0.00    +0.054 A 
ATOM     22  C14 UNL     1      18.750  11.940  36.413  0.00  0.00    +0.105 A 
ATOM     23  N3  UNL     1      19.994  12.377  36.674  0.00  0.00    -0.284 N 
ATOM     24  N4  UNL     1      20.806  12.026  35.689  0.00  0.00    -0.169 NA
ATOM     25  H17 UNL     1      20.293  12.912  37.519  0.00  0.00    +0.188 HD
ENDBRANCH  17  20
ENDBRANCH   6  16
TORSDOF 4
ENDMDL
MODEL 9
REMARK VINA RESULT:    -5.248     13.156     15.532
REMARK INTER + INTRA:          -7.080
REMARK INTER:                  -6.645
REMARK INTRA:                  -0.435
REMARK UNBOUND:                -0.605
REMARK  Name = /home/qwerty/github/datacon2025hack/step_04_hit_selection/docking/ligands/lig_431.pdb
REMARK  6 active torsions:
REMARK  status: ('A' for Active; 'I' for Inactive)
REMARK    1  A    between atoms: C1_1  and  C2_2
REMARK    2  A    between atoms: C2_2  and  C3_3
REMARK    3  A    between atoms: C2_2  and  C4_4
REMARK    4  A    between atoms: C6_6  and  C7_7
REMARK    5  A    between atoms: C10_12  and  N2_13
REMARK    6  A    between atoms: C11_14  and  C12_16
REMARK                            x       y       z     vdW  Elec       q    Type
REMARK                         _______ _______ _______ _____ _____    ______ ____
ROOT
ATOM      1  C7  UNL     1       9.118   8.345  27.393  0.00  0.00    +0.285 C 
ATOM      2  O1  UNL     1       9.869   7.639  28.118  0.00  0.00    -0.267 OA
ATOM      3  N1  UNL     1       8.783   7.887  26.069  0.00  0.00    -0.293 N 
ATOM      4  C8  UNL     1       9.111   6.546  25.612  0.00  0.00    +0.110 C 
ATOM      5  C9  UNL     1       8.732   6.510  24.139  0.00  0.00    +0.043 C 
ATOM      6  C10 UNL     1       8.694   7.976  23.694  0.00  0.00    +0.092 C 
ATOM      7  C15 UNL     1       8.385   8.757  24.971  0.00  0.00    +0.130 C 
ENDROOT
BRANCH   1  10
ATOM      8  C4  UNL     1       8.221  11.718  28.349  0.00  0.00    +0.087 A 
ATOM      9  C5  UNL     1       8.968  10.905  27.522  0.00  0.00    +0.081 A 
ATOM     10  C6  UNL     1       8.639   9.629  27.937  0.00  0.00    +0.222 A 
ATOM     11  O3  UNL     1       7.764   9.719  28.913  0.00  0.00    -0.350 OA
ATOM     12  N5  UNL     1       7.489  10.961  29.191  0.00  0.00    -0.082 NA
BRANCH   8  14
ATOM     13  C1  UNL     1       9.576  13.792  28.068  0.00  0.00    +0.014 C 
ATOM     14  C2  UNL     1       8.175  13.220  28.302  0.00  0.00    +0.035 C 
ATOM     15  C3  UNL     1       7.567  13.774  29.594  0.00  0.00    +0.014 C 
ENDBRANCH   8  14
ENDBRANCH   1  10
BRANCH   6  16
ATOM     16  N2  UNL     1       9.991   8.391  23.143  0.00  0.00    -0.306 N 
ATOM     17  C11 UNL     1      10.093   9.405  22.132  0.00  0.00    +0.264 C 
ATOM     18  O2  UNL     1       9.052   9.950  21.675  0.00  0.00    -0.268 OA
ATOM     19  H14 UNL     1      10.866   7.935  23.487  0.00  0.00    +0.149 HD
BRANCH  17  20
ATOM     20  C12 UNL     1      11.411   9.818  21.621  0.00  0.00    +0.147 A 
ATOM     21  C13 UNL     1      11.644  10.536  20.462  0.00  0.00    +0.054 A 
ATOM     22  C14 UNL     1      13.014  10.675  20.418  0.00  0.00    +0.105 A 
ATOM     23  N3  UNL     1      13.546  10.068  21.494  0.00  0.00    -0.284 N 
ATOM     24  N4  UNL     1      12.580   9.544  22.232  0.00  0.00    -0.169 NA
ATOM     25  H17 UNL     1      14.561  10.010  21.728  0.00  0.00    +0.188 HD
ENDBRANCH  17  20
ENDBRANCH   6  16
TORSDOF 4
ENDMDL
