REMARK  Name = /home/qwerty/github/datacon2025hack/step_04_hit_selection/docking/ligands/lig_267.pdb
REMARK  4 active torsions:
REMARK  status: ('A' for Active; 'I' for Inactive)
REMARK    1  A    between atoms: C1_2  and  C15_20
REMARK    2  A    between atoms: N1_3  and  C2_4
REMARK    3  A    between atoms: C5_7  and  O2_8
REMARK    4  A    between atoms: C6_9  and  C7_10
REMARK                            x       y       z     vdW  Elec       q    Type
REMARK                         _______ _______ _______ _____ _____    ______ ____
ROOT
ATOM      1  C2  UNL     1      -0.061   1.730  -1.289  0.00  0.00    +0.035 A 
ATOM      2  C3  UNL     1       0.240   2.760  -2.186  0.00  0.00    +0.027 A 
ATOM      3  C4  UNL     1       1.566   3.092  -2.460  0.00  0.00    +0.048 A 
ATOM      4  C5  UNL     1       2.618   2.391  -1.853  0.00  0.00    +0.127 A 
ATOM      5  C6  UNL     1       2.335   1.338  -0.951  0.00  0.00    +0.050 A 
ATOM      6  C14 UNL     1       0.989   1.011  -0.693  0.00  0.00    +0.037 A 
ENDROOT
BRANCH   5   7
ATOM      7  C7  UNL     1       3.404   0.554  -0.278  0.00  0.00    +0.113 A 
ATOM      8  N2  UNL     1       3.166  -0.633   0.339  0.00  0.00    -0.239 NA
ATOM      9  C8  UNL     1       4.291  -1.140   0.905  0.00  0.00    +0.079 A 
ATOM     10  C9  UNL     1       4.348  -2.348   1.602  0.00  0.00    +0.029 A 
ATOM     11  C10 UNL     1       5.579  -2.758   2.143  0.00  0.00    +0.002 A 
ATOM     12  C11 UNL     1       6.731  -1.960   1.982  0.00  0.00    +0.001 A 
ATOM     13  C12 UNL     1       6.660  -0.747   1.280  0.00  0.00    +0.017 A 
ATOM     14  C13 UNL     1       5.428  -0.366   0.754  0.00  0.00    +0.040 A 
ATOM     15  S1  UNL     1       5.035   1.010  -0.117  0.00  0.00    -0.067 S 
ENDBRANCH   5   7
BRANCH   1  18
ATOM     16  O1  UNL     1      -1.237   1.050   1.266  0.00  0.00    -0.266 OA
ATOM     17  C1  UNL     1      -1.924   0.902   0.220  0.00  0.00    +0.284 C 
ATOM     18  N1  UNL     1      -1.437   1.392  -1.041  0.00  0.00    -0.279 N 
ATOM     19  H1  UNL     1      -2.134   1.613  -1.787  0.00  0.00    +0.155 HD
BRANCH  17  20
ATOM     20  C15 UNL     1      -3.244   0.259   0.323  0.00  0.00    +0.191 A 
ATOM     21  C16 UNL     1      -4.094  -0.054  -0.738  0.00  0.00    +0.063 A 
ATOM     22  C17 UNL     1      -5.184  -0.640  -0.137  0.00  0.00    +0.021 A 
ATOM     23  C18 UNL     1      -6.356  -1.160  -0.681  0.00  0.00    +0.011 A 
ATOM     24  C19 UNL     1      -7.303  -1.705   0.206  0.00  0.00    +0.001 A 
ATOM     25  C20 UNL     1      -7.057  -1.716   1.598  0.00  0.00    +0.004 A 
ATOM     26  C21 UNL     1      -5.861  -1.183   2.114  0.00  0.00    +0.047 A 
ATOM     27  C22 UNL     1      -4.944  -0.651   1.211  0.00  0.00    +0.136 A 
ATOM     28  O3  UNL     1      -3.779  -0.111   1.474  0.00  0.00    -0.450 OA
ENDBRANCH  17  20
ENDBRANCH   1  18
BRANCH   4  29
ATOM     29  O2  UNL     1       3.932   2.734  -2.167  0.00  0.00    -0.506 OA
ATOM     30  H4  UNL     1       4.148   3.482  -2.816  0.00  0.00    +0.292 HD
ENDBRANCH   4  29
TORSDOF 4
