MODEL 1
REMARK VINA RESULT:    -6.572      0.000      0.000
REMARK INTER + INTRA:         -10.242
REMARK INTER:                  -9.261
REMARK INTRA:                  -0.981
REMARK UNBOUND:                -0.981
REMARK  Name = /home/qwerty/github/datacon2025hack/step_04_hit_selection/docking/ligands/lig_95.pdb
REMARK  9 active torsions:
REMARK  status: ('A' for Active; 'I' for Inactive)
REMARK    1  A    between atoms: C1_1  and  C2_2
REMARK    2  A    between atoms: C2_2  and  C3_3
REMARK    3  A    between atoms: C3_3  and  C4_4
REMARK    4  A    between atoms: C3_3  and  N1_9
REMARK    5  A    between atoms: C4_4  and  C5_5
REMARK    6  A    between atoms: C6_10  and  C7_12
REMARK    7  A    between atoms: N2_14  and  C8_15
REMARK    8  A    between atoms: C10_17  and  C11_18
REMARK    9  A    between atoms: C18_27  and  C19_28
REMARK                            x       y       z     vdW  Elec       q    Type
REMARK                         _______ _______ _______ _____ _____    ______ ____
ROOT
ATOM      1  C7  UNL     1      19.409   0.650  25.604  0.00  0.00    +0.303 C 
ATOM      2  O2  UNL     1      20.134   0.705  24.574  0.00  0.00    -0.265 OA
ATOM      3  N2  UNL     1      18.096   0.066  25.531  0.00  0.00    -0.277 N 
ATOM      4  H10 UNL     1      17.617  -0.190  26.423  0.00  0.00    +0.155 HD
ENDROOT
BRANCH   3   5
ATOM      5  C8  UNL     1      17.444  -0.256  24.288  0.00  0.00    +0.037 A 
ATOM      6  C9  UNL     1      16.955   0.772  23.462  0.00  0.00    +0.032 A 
ATOM      7  C10 UNL     1      16.284   0.480  22.263  0.00  0.00    -0.015 A 
ATOM      8  C16 UNL     1      16.091  -0.862  21.901  0.00  0.00    +0.009 A 
ATOM      9  C17 UNL     1      16.560  -1.891  22.720  0.00  0.00    +0.006 A 
ATOM     10  C18 UNL     1      17.241  -1.602  23.912  0.00  0.00    -0.029 A 
ATOM     11  C19 UNL     1      17.734  -2.734  24.774  0.00  0.00    +0.045 C 
BRANCH   7  12
ATOM     12  C11 UNL     1      15.779   1.576  21.396  0.00  0.00    +0.003 A 
ATOM     13  C12 UNL     1      14.412   1.676  21.080  0.00  0.00    +0.119 A 
ATOM     14  N3  UNL     1      13.961   2.685  20.287  0.00  0.00    -0.260 NA
ATOM     15  C13 UNL     1      14.801   3.620  19.773  0.00  0.00    +0.149 A 
ATOM     16  C14 UNL     1      16.166   3.565  20.056  0.00  0.00    +0.142 A 
ATOM     17  F4  UNL     1      17.011   4.493  19.544  0.00  0.00    -0.204 F 
ATOM     18  C15 UNL     1      16.656   2.541  20.870  0.00  0.00    +0.050 A 
ENDBRANCH   7  12
ENDBRANCH   3   5
BRANCH   1  20
ATOM     19  N1  UNL     1      21.189   0.705  27.400  0.00  0.00    -0.304 N 
ATOM     20  C6  UNL     1      19.927   1.163  26.886  0.00  0.00    +0.300 C 
ATOM     21  O1  UNL     1      19.255   2.011  27.534  0.00  0.00    -0.265 OA
ATOM     22  H9  UNL     1      21.703  -0.042  26.878  0.00  0.00    +0.149 HD
BRANCH  19  23
ATOM     23  C3  UNL     1      21.783   1.245  28.630  0.00  0.00    +0.082 C 
BRANCH  23  25
ATOM     24  C1  UNL     1      24.226   0.741  29.279  0.00  0.00    +0.006 C 
ATOM     25  C2  UNL     1      23.279   1.561  28.399  0.00  0.00    +0.019 C 
ENDBRANCH  23  25
BRANCH  23  26
ATOM     26  C4  UNL     1      21.513   0.278  29.810  0.00  0.00    +0.135 C 
BRANCH  26  27
ATOM     27  C5  UNL     1      20.515   0.803  30.852  0.00  0.00    +0.392 C 
ATOM     28  F1  UNL     1      20.701   2.165  31.009  0.00  0.00    -0.171 F 
ATOM     29  F2  UNL     1      20.712   0.187  32.076  0.00  0.00    -0.171 F 
ATOM     30  F3  UNL     1      19.215   0.590  30.434  0.00  0.00    -0.171 F 
ENDBRANCH  26  27
ENDBRANCH  23  26
ENDBRANCH  19  23
ENDBRANCH   1  20
TORSDOF 7
ENDMDL
MODEL 2
REMARK VINA RESULT:    -6.433      6.809     12.343
REMARK INTER + INTRA:         -10.046
REMARK INTER:                  -9.037
REMARK INTRA:                  -1.009
REMARK UNBOUND:                -0.981
REMARK  Name = /home/qwerty/github/datacon2025hack/step_04_hit_selection/docking/ligands/lig_95.pdb
REMARK  9 active torsions:
REMARK  status: ('A' for Active; 'I' for Inactive)
REMARK    1  A    between atoms: C1_1  and  C2_2
REMARK    2  A    between atoms: C2_2  and  C3_3
REMARK    3  A    between atoms: C3_3  and  C4_4
REMARK    4  A    between atoms: C3_3  and  N1_9
REMARK    5  A    between atoms: C4_4  and  C5_5
REMARK    6  A    between atoms: C6_10  and  C7_12
REMARK    7  A    between atoms: N2_14  and  C8_15
REMARK    8  A    between atoms: C10_17  and  C11_18
REMARK    9  A    between atoms: C18_27  and  C19_28
REMARK                            x       y       z     vdW  Elec       q    Type
REMARK                         _______ _______ _______ _____ _____    ______ ____
ROOT
ATOM      1  C7  UNL     1      21.905   3.660  32.359  0.00  0.00    +0.303 C 
ATOM      2  O2  UNL     1      21.972   2.920  33.378  0.00  0.00    -0.265 OA
ATOM      3  N2  UNL     1      22.209   5.062  32.466  0.00  0.00    -0.277 N 
ATOM      4  H10 UNL     1      22.386   5.599  31.588  0.00  0.00    +0.155 HD
ENDROOT
BRANCH   3   5
ATOM      5  C8  UNL     1      22.363   5.742  33.726  0.00  0.00    +0.037 A 
ATOM      6  C9  UNL     1      21.229   6.083  34.485  0.00  0.00    +0.032 A 
ATOM      7  C10 UNL     1      21.352   6.778  35.700  0.00  0.00    -0.015 A 
ATOM      8  C16 UNL     1      22.631   7.147  36.144  0.00  0.00    +0.009 A 
ATOM      9  C17 UNL     1      23.763   6.828  35.392  0.00  0.00    +0.006 A 
ATOM     10  C18 UNL     1      23.643   6.123  34.185  0.00  0.00    -0.029 A 
ATOM     11  C19 UNL     1      24.882   5.793  33.396  0.00  0.00    +0.045 C 
BRANCH   7  12
ATOM     12  C11 UNL     1      20.147   7.124  36.495  0.00  0.00    +0.003 A 
ATOM     13  C12 UNL     1      19.129   6.178  36.717  0.00  0.00    +0.119 A 
ATOM     14  N3  UNL     1      18.031   6.508  37.448  0.00  0.00    -0.260 NA
ATOM     15  C13 UNL     1      17.873   7.746  37.984  0.00  0.00    +0.149 A 
ATOM     16  C14 UNL     1      18.853   8.720  37.793  0.00  0.00    +0.142 A 
ATOM     17  F4  UNL     1      18.701   9.958  38.322  0.00  0.00    -0.204 F 
ATOM     18  C15 UNL     1      19.993   8.408  37.048  0.00  0.00    +0.050 A 
ENDBRANCH   7  12
ENDBRANCH   3   5
BRANCH   1  20
ATOM     19  N1  UNL     1      22.242   1.928  30.548  0.00  0.00    -0.304 N 
ATOM     20  C6  UNL     1      21.539   3.073  31.056  0.00  0.00    +0.300 C 
ATOM     21  O1  UNL     1      20.600   3.583  30.386  0.00  0.00    -0.265 OA
ATOM     22  H9  UNL     1      23.056   1.556  31.090  0.00  0.00    +0.149 HD
BRANCH  19  23
ATOM     23  C3  UNL     1      21.863   1.260  29.296  0.00  0.00    +0.082 C 
BRANCH  23  25
ATOM     24  C1  UNL     1      22.883  -1.042  28.745  0.00  0.00    +0.006 C 
ATOM     25  C2  UNL     1      21.805  -0.270  29.510  0.00  0.00    +0.019 C 
ENDBRANCH  23  25
BRANCH  23  26
ATOM     26  C4  UNL     1      22.812   1.707  28.156  0.00  0.00    +0.135 C 
BRANCH  26  27
ATOM     27  C5  UNL     1      22.193   2.698  27.159  0.00  0.00    +0.392 C 
ATOM     28  F1  UNL     1      22.211   3.966  27.712  0.00  0.00    -0.171 F 
ATOM     29  F2  UNL     1      20.881   2.357  26.878  0.00  0.00    -0.171 F 
ATOM     30  F3  UNL     1      22.922   2.729  25.985  0.00  0.00    -0.171 F 
ENDBRANCH  26  27
ENDBRANCH  23  26
ENDBRANCH  19  23
ENDBRANCH   1  20
TORSDOF 7
ENDMDL
MODEL 3
REMARK VINA RESULT:    -6.304     14.557     17.347
REMARK INTER + INTRA:          -9.864
REMARK INTER:                  -8.989
REMARK INTRA:                  -0.876
REMARK UNBOUND:                -0.981
REMARK  Name = /home/qwerty/github/datacon2025hack/step_04_hit_selection/docking/ligands/lig_95.pdb
REMARK  9 active torsions:
REMARK  status: ('A' for Active; 'I' for Inactive)
REMARK    1  A    between atoms: C1_1  and  C2_2
REMARK    2  A    between atoms: C2_2  and  C3_3
REMARK    3  A    between atoms: C3_3  and  C4_4
REMARK    4  A    between atoms: C3_3  and  N1_9
REMARK    5  A    between atoms: C4_4  and  C5_5
REMARK    6  A    between atoms: C6_10  and  C7_12
REMARK    7  A    between atoms: N2_14  and  C8_15
REMARK    8  A    between atoms: C10_17  and  C11_18
REMARK    9  A    between atoms: C18_27  and  C19_28
REMARK                            x       y       z     vdW  Elec       q    Type
REMARK                         _______ _______ _______ _____ _____    ______ ____
ROOT
ATOM      1  C7  UNL     1      15.813  12.511  36.710  0.00  0.00    +0.303 C 
ATOM      2  O2  UNL     1      16.578  12.784  37.674  0.00  0.00    -0.265 OA
ATOM      3  N2  UNL     1      16.336  11.868  35.534  0.00  0.00    -0.277 N 
ATOM      4  H10 UNL     1      15.661  11.435  34.864  0.00  0.00    +0.155 HD
ENDROOT
BRANCH   3   5
ATOM      5  C8  UNL     1      17.745  11.718  35.278  0.00  0.00    +0.037 A 
ATOM      6  C9  UNL     1      18.438  10.603  35.781  0.00  0.00    +0.032 A 
ATOM      7  C10 UNL     1      19.819  10.454  35.574  0.00  0.00    -0.015 A 
ATOM      8  C16 UNL     1      20.511  11.449  34.866  0.00  0.00    +0.009 A 
ATOM      9  C17 UNL     1      19.837  12.569  34.375  0.00  0.00    +0.006 A 
ATOM     10  C18 UNL     1      18.455  12.713  34.569  0.00  0.00    -0.029 A 
ATOM     11  C19 UNL     1      17.756  13.931  34.028  0.00  0.00    +0.045 C 
BRANCH   7  12
ATOM     12  C11 UNL     1      20.538   9.267  36.105  0.00  0.00    +0.003 A 
ATOM     13  C12 UNL     1      19.988   8.493  37.143  0.00  0.00    +0.119 A 
ATOM     14  N3  UNL     1      20.655   7.408  37.619  0.00  0.00    -0.260 NA
ATOM     15  C13 UNL     1      21.862   7.035  37.120  0.00  0.00    +0.149 A 
ATOM     16  C14 UNL     1      22.450   7.769  36.090  0.00  0.00    +0.142 A 
ATOM     17  F4  UNL     1      23.656   7.405  35.590  0.00  0.00    -0.204 F 
ATOM     18  C15 UNL     1      21.786   8.887  35.581  0.00  0.00    +0.050 A 
ENDBRANCH   7  12
ENDBRANCH   3   5
BRANCH   1  20
ATOM     19  N1  UNL     1      13.385  11.805  36.648  0.00  0.00    -0.304 N 
ATOM     20  C6  UNL     1      14.377  12.833  36.808  0.00  0.00    +0.300 C 
ATOM     21  O1  UNL     1      14.020  14.022  37.035  0.00  0.00    -0.265 OA
ATOM     22  H9  UNL     1      13.699  10.838  36.401  0.00  0.00    +0.149 HD
BRANCH  19  23
ATOM     23  C3  UNL     1      11.949  12.062  36.816  0.00  0.00    +0.082 C 
BRANCH  23  25
ATOM     24  C1  UNL     1      10.974   9.675  36.827  0.00  0.00    +0.006 C 
ATOM     25  C2  UNL     1      11.303  10.927  37.645  0.00  0.00    +0.019 C 
ENDBRANCH  23  25
BRANCH  23  26
ATOM     26  C4  UNL     1      11.292  12.290  35.431  0.00  0.00    +0.135 C 
BRANCH  26  27
ATOM     27  C5  UNL     1      10.699  13.691  35.227  0.00  0.00    +0.392 C 
ATOM     28  F1  UNL     1      10.700  13.990  33.877  0.00  0.00    -0.171 F 
ATOM     29  F2  UNL     1      11.451  14.644  35.892  0.00  0.00    -0.171 F 
ATOM     30  F3  UNL     1       9.393  13.739  35.679  0.00  0.00    -0.171 F 
ENDBRANCH  26  27
ENDBRANCH  23  26
ENDBRANCH  19  23
ENDBRANCH   1  20
TORSDOF 7
ENDMDL
MODEL 4
REMARK VINA RESULT:    -6.255      9.414     13.274
REMARK INTER + INTRA:          -9.795
REMARK INTER:                  -8.775
REMARK INTRA:                  -1.021
REMARK UNBOUND:                -0.981
REMARK  Name = /home/qwerty/github/datacon2025hack/step_04_hit_selection/docking/ligands/lig_95.pdb
REMARK  9 active torsions:
REMARK  status: ('A' for Active; 'I' for Inactive)
REMARK    1  A    between atoms: C1_1  and  C2_2
REMARK    2  A    between atoms: C2_2  and  C3_3
REMARK    3  A    between atoms: C3_3  and  C4_4
REMARK    4  A    between atoms: C3_3  and  N1_9
REMARK    5  A    between atoms: C4_4  and  C5_5
REMARK    6  A    between atoms: C6_10  and  C7_12
REMARK    7  A    between atoms: N2_14  and  C8_15
REMARK    8  A    between atoms: C10_17  and  C11_18
REMARK    9  A    between atoms: C18_27  and  C19_28
REMARK                            x       y       z     vdW  Elec       q    Type
REMARK                         _______ _______ _______ _____ _____    ______ ____
ROOT
ATOM      1  C7  UNL     1      21.910  10.224  30.788  0.00  0.00    +0.303 C 
ATOM      2  O2  UNL     1      21.157   9.981  31.771  0.00  0.00    -0.265 OA
ATOM      3  N2  UNL     1      22.929   9.281  30.412  0.00  0.00    -0.277 N 
ATOM      4  H10 UNL     1      23.370   9.377  29.470  0.00  0.00    +0.155 HD
ENDROOT
BRANCH   3   5
ATOM      5  C8  UNL     1      23.314   8.165  31.237  0.00  0.00    +0.037 A 
ATOM      6  C9  UNL     1      22.600   6.956  31.163  0.00  0.00    +0.032 A 
ATOM      7  C10 UNL     1      22.935   5.866  31.983  0.00  0.00    -0.015 A 
ATOM      8  C16 UNL     1      23.990   6.002  32.898  0.00  0.00    +0.009 A 
ATOM      9  C17 UNL     1      24.697   7.203  32.991  0.00  0.00    +0.006 A 
ATOM     10  C18 UNL     1      24.373   8.289  32.164  0.00  0.00    -0.029 A 
ATOM     11  C19 UNL     1      25.153   9.570  32.287  0.00  0.00    +0.045 C 
BRANCH   7  12
ATOM     12  C11 UNL     1      22.177   4.592  31.890  0.00  0.00    +0.003 A 
ATOM     13  C12 UNL     1      22.163   3.678  32.960  0.00  0.00    +0.119 A 
ATOM     14  N3  UNL     1      21.464   2.515  32.862  0.00  0.00    -0.260 NA
ATOM     15  C13 UNL     1      20.764   2.193  31.744  0.00  0.00    +0.149 A 
ATOM     16  C14 UNL     1      20.746   3.065  30.655  0.00  0.00    +0.142 A 
ATOM     17  F4  UNL     1      20.053   2.748  29.534  0.00  0.00    -0.204 F 
ATOM     18  C15 UNL     1      21.454   4.267  30.729  0.00  0.00    +0.050 A 
ENDBRANCH   7  12
ENDBRANCH   3   5
BRANCH   1  20
ATOM     19  N1  UNL     1      22.824  12.348  29.765  0.00  0.00    -0.304 N 
ATOM     20  C6  UNL     1      21.718  11.464  30.014  0.00  0.00    +0.300 C 
ATOM     21  O1  UNL     1      20.573  11.748  29.567  0.00  0.00    -0.265 OA
ATOM     22  H9  UNL     1      23.752  12.125  30.194  0.00  0.00    +0.149 HD
BRANCH  19  23
ATOM     23  C3  UNL     1      22.700  13.552  28.933  0.00  0.00    +0.082 C 
BRANCH  23  25
ATOM     24  C1  UNL     1      23.620  14.367  26.667  0.00  0.00    +0.006 C 
ATOM     25  C2  UNL     1      23.927  13.678  28.000  0.00  0.00    +0.019 C 
ENDBRANCH  23  25
BRANCH  23  26
ATOM     26  C4  UNL     1      22.457  14.789  29.835  0.00  0.00    +0.135 C 
BRANCH  26  27
ATOM     27  C5  UNL     1      21.322  15.710  29.366  0.00  0.00    +0.392 C 
ATOM     28  F1  UNL     1      20.855  16.437  30.446  0.00  0.00    -0.171 F 
ATOM     29  F2  UNL     1      20.273  14.971  28.845  0.00  0.00    -0.171 F 
ATOM     30  F3  UNL     1      21.777  16.599  28.411  0.00  0.00    -0.171 F 
ENDBRANCH  26  27
ENDBRANCH  23  26
ENDBRANCH  19  23
ENDBRANCH   1  20
TORSDOF 7
ENDMDL
MODEL 5
REMARK VINA RESULT:    -6.194      1.535      1.863
REMARK INTER + INTRA:          -9.710
REMARK INTER:                  -8.793
REMARK INTRA:                  -0.917
REMARK UNBOUND:                -0.981
REMARK  Name = /home/qwerty/github/datacon2025hack/step_04_hit_selection/docking/ligands/lig_95.pdb
REMARK  9 active torsions:
REMARK  status: ('A' for Active; 'I' for Inactive)
REMARK    1  A    between atoms: C1_1  and  C2_2
REMARK    2  A    between atoms: C2_2  and  C3_3
REMARK    3  A    between atoms: C3_3  and  C4_4
REMARK    4  A    between atoms: C3_3  and  N1_9
REMARK    5  A    between atoms: C4_4  and  C5_5
REMARK    6  A    between atoms: C6_10  and  C7_12
REMARK    7  A    between atoms: N2_14  and  C8_15
REMARK    8  A    between atoms: C10_17  and  C11_18
REMARK    9  A    between atoms: C18_27  and  C19_28
REMARK                            x       y       z     vdW  Elec       q    Type
REMARK                         _______ _______ _______ _____ _____    ______ ____
ROOT
ATOM      1  C7  UNL     1      19.232   0.712  25.397  0.00  0.00    +0.303 C 
ATOM      2  O2  UNL     1      20.003   0.629  24.403  0.00  0.00    -0.265 OA
ATOM      3  N2  UNL     1      17.859   0.300  25.280  0.00  0.00    -0.277 N 
ATOM      4  H10 UNL     1      17.311   0.146  26.156  0.00  0.00    +0.155 HD
ENDROOT
BRANCH   3   5
ATOM      5  C8  UNL     1      17.227   0.011  24.019  0.00  0.00    +0.037 A 
ATOM      6  C9  UNL     1      16.774   1.062  23.201  0.00  0.00    +0.032 A 
ATOM      7  C10 UNL     1      16.123   0.803  21.983  0.00  0.00    -0.015 A 
ATOM      8  C16 UNL     1      15.912  -0.529  21.595  0.00  0.00    +0.009 A 
ATOM      9  C17 UNL     1      16.344  -1.580  22.405  0.00  0.00    +0.006 A 
ATOM     10  C18 UNL     1      17.006  -1.325  23.615  0.00  0.00    -0.029 A 
ATOM     11  C19 UNL     1      17.459  -2.479  24.468  0.00  0.00    +0.045 C 
BRANCH   7  12
ATOM     12  C11 UNL     1      15.657   1.923  21.125  0.00  0.00    +0.003 A 
ATOM     13  C12 UNL     1      14.290   2.097  20.842  0.00  0.00    +0.119 A 
ATOM     14  N3  UNL     1      13.876   3.127  20.056  0.00  0.00    -0.260 NA
ATOM     15  C13 UNL     1      14.752   4.014  19.519  0.00  0.00    +0.149 A 
ATOM     16  C14 UNL     1      16.119   3.886  19.770  0.00  0.00    +0.142 A 
ATOM     17  F4  UNL     1      17.000   4.766  19.235  0.00  0.00    -0.204 F 
ATOM     18  C15 UNL     1      16.572   2.838  20.575  0.00  0.00    +0.050 A 
ENDBRANCH   7  12
ENDBRANCH   3   5
BRANCH   1  20
ATOM     19  N1  UNL     1      21.005   1.915  26.741  0.00  0.00    -0.304 N 
ATOM     20  C6  UNL     1      19.755   1.208  26.684  0.00  0.00    +0.300 C 
ATOM     21  O1  UNL     1      19.096   1.009  27.741  0.00  0.00    -0.265 OA
ATOM     22  H9  UNL     1      21.564   2.018  25.863  0.00  0.00    +0.149 HD
BRANCH  19  23
ATOM     23  C3  UNL     1      21.526   2.497  27.985  0.00  0.00    +0.082 C 
BRANCH  23  25
ATOM     24  C1  UNL     1      21.466   4.715  29.297  0.00  0.00    +0.006 C 
ATOM     25  C2  UNL     1      21.440   4.040  27.923  0.00  0.00    +0.019 C 
ENDBRANCH  23  25
BRANCH  23  26
ATOM     26  C4  UNL     1      22.950   1.950  28.262  0.00  0.00    +0.135 C 
BRANCH  26  27
ATOM     27  C5  UNL     1      23.016   0.852  29.334  0.00  0.00    +0.392 C 
ATOM     28  F1  UNL     1      24.279   0.846  29.896  0.00  0.00    -0.171 F 
ATOM     29  F2  UNL     1      22.773  -0.392  28.778  0.00  0.00    -0.171 F 
ATOM     30  F3  UNL     1      22.097   1.094  30.338  0.00  0.00    -0.171 F 
ENDBRANCH  26  27
ENDBRANCH  23  26
ENDBRANCH  19  23
ENDBRANCH   1  20
TORSDOF 7
ENDMDL
MODEL 6
REMARK VINA RESULT:    -6.069      6.586     12.279
REMARK INTER + INTRA:          -9.533
REMARK INTER:                  -9.023
REMARK INTRA:                  -0.509
REMARK UNBOUND:                -0.981
REMARK  Name = /home/qwerty/github/datacon2025hack/step_04_hit_selection/docking/ligands/lig_95.pdb
REMARK  9 active torsions:
REMARK  status: ('A' for Active; 'I' for Inactive)
REMARK    1  A    between atoms: C1_1  and  C2_2
REMARK    2  A    between atoms: C2_2  and  C3_3
REMARK    3  A    between atoms: C3_3  and  C4_4
REMARK    4  A    between atoms: C3_3  and  N1_9
REMARK    5  A    between atoms: C4_4  and  C5_5
REMARK    6  A    between atoms: C6_10  and  C7_12
REMARK    7  A    between atoms: N2_14  and  C8_15
REMARK    8  A    between atoms: C10_17  and  C11_18
REMARK    9  A    between atoms: C18_27  and  C19_28
REMARK                            x       y       z     vdW  Elec       q    Type
REMARK                         _______ _______ _______ _____ _____    ______ ____
ROOT
ATOM      1  C7  UNL     1      21.902   4.084  31.748  0.00  0.00    +0.303 C 
ATOM      2  O2  UNL     1      22.049   3.190  32.626  0.00  0.00    -0.265 OA
ATOM      3  N2  UNL     1      22.240   5.449  32.048  0.00  0.00    -0.277 N 
ATOM      4  H10 UNL     1      22.345   6.119  31.253  0.00  0.00    +0.155 HD
ENDROOT
BRANCH   3   5
ATOM      5  C8  UNL     1      22.520   5.919  33.380  0.00  0.00    +0.037 A 
ATOM      6  C9  UNL     1      21.469   6.343  34.212  0.00  0.00    +0.032 A 
ATOM      7  C10 UNL     1      21.721   6.839  35.502  0.00  0.00    -0.015 A 
ATOM      8  C16 UNL     1      23.049   6.922  35.951  0.00  0.00    +0.009 A 
ATOM      9  C17 UNL     1      24.101   6.518  35.127  0.00  0.00    +0.006 A 
ATOM     10  C18 UNL     1      23.851   6.011  33.844  0.00  0.00    -0.029 A 
ATOM     11  C19 UNL     1      25.007   5.584  32.979  0.00  0.00    +0.045 C 
BRANCH   7  12
ATOM     12  C11 UNL     1      20.601   7.276  36.374  0.00  0.00    +0.003 A 
ATOM     13  C12 UNL     1      20.338   8.642  36.584  0.00  0.00    +0.119 A 
ATOM     14  N3  UNL     1      19.308   9.030  37.383  0.00  0.00    -0.260 NA
ATOM     15  C13 UNL     1      18.506   8.127  38.005  0.00  0.00    +0.149 A 
ATOM     16  C14 UNL     1      18.725   6.760  37.829  0.00  0.00    +0.142 A 
ATOM     17  F4  UNL     1      17.930   5.854  38.448  0.00  0.00    -0.204 F 
ATOM     18  C15 UNL     1      19.774   6.334  37.012  0.00  0.00    +0.050 A 
ENDBRANCH   7  12
ENDBRANCH   3   5
BRANCH   1  20
ATOM     19  N1  UNL     1      21.299   2.332  30.026  0.00  0.00    -0.304 N 
ATOM     20  C6  UNL     1      21.409   3.713  30.409  0.00  0.00    +0.300 C 
ATOM     21  O1  UNL     1      21.079   4.619  29.595  0.00  0.00    -0.265 OA
ATOM     22  H9  UNL     1      21.633   1.598  30.693  0.00  0.00    +0.149 HD
BRANCH  19  23
ATOM     23  C3  UNL     1      20.739   1.913  28.735  0.00  0.00    +0.082 C 
BRANCH  23  25
ATOM     24  C1  UNL     1      18.474   1.357  27.636  0.00  0.00    +0.006 C 
ATOM     25  C2  UNL     1      19.294   1.397  28.928  0.00  0.00    +0.019 C 
ENDBRANCH  23  25
BRANCH  23  26
ATOM     26  C4  UNL     1      21.691   0.895  28.057  0.00  0.00    +0.135 C 
BRANCH  26  27
ATOM     27  C5  UNL     1      22.344  -0.109  29.018  0.00  0.00    +0.392 C 
ATOM     28  F1  UNL     1      22.671  -1.257  28.318  0.00  0.00    -0.171 F 
ATOM     29  F2  UNL     1      21.474  -0.447  30.040  0.00  0.00    -0.171 F 
ATOM     30  F3  UNL     1      23.505   0.414  29.556  0.00  0.00    -0.171 F 
ENDBRANCH  26  27
ENDBRANCH  23  26
ENDBRANCH  19  23
ENDBRANCH   1  20
TORSDOF 7
ENDMDL
MODEL 7
REMARK VINA RESULT:    -6.017     13.446     16.408
REMARK INTER + INTRA:          -9.460
REMARK INTER:                  -8.503
REMARK INTRA:                  -0.958
REMARK UNBOUND:                -0.981
REMARK  Name = /home/qwerty/github/datacon2025hack/step_04_hit_selection/docking/ligands/lig_95.pdb
REMARK  9 active torsions:
REMARK  status: ('A' for Active; 'I' for Inactive)
REMARK    1  A    between atoms: C1_1  and  C2_2
REMARK    2  A    between atoms: C2_2  and  C3_3
REMARK    3  A    between atoms: C3_3  and  C4_4
REMARK    4  A    between atoms: C3_3  and  N1_9
REMARK    5  A    between atoms: C4_4  and  C5_5
REMARK    6  A    between atoms: C6_10  and  C7_12
REMARK    7  A    between atoms: N2_14  and  C8_15
REMARK    8  A    between atoms: C10_17  and  C11_18
REMARK    9  A    between atoms: C18_27  and  C19_28
REMARK                            x       y       z     vdW  Elec       q    Type
REMARK                         _______ _______ _______ _____ _____    ______ ____
ROOT
ATOM      1  C7  UNL     1      18.435  12.018  36.157  0.00  0.00    +0.303 C 
ATOM      2  O2  UNL     1      19.440  12.439  36.791  0.00  0.00    -0.265 OA
ATOM      3  N2  UNL     1      18.278  10.609  35.911  0.00  0.00    -0.277 N 
ATOM      4  H10 UNL     1      17.341  10.261  35.609  0.00  0.00    +0.155 HD
ENDROOT
BRANCH   3   5
ATOM      5  C8  UNL     1      19.324   9.647  36.139  0.00  0.00    +0.037 A 
ATOM      6  C9  UNL     1      20.396   9.544  35.235  0.00  0.00    +0.032 A 
ATOM      7  C10 UNL     1      21.410   8.589  35.418  0.00  0.00    -0.015 A 
ATOM      8  C16 UNL     1      21.332   7.718  36.515  0.00  0.00    +0.009 A 
ATOM      9  C17 UNL     1      20.265   7.800  37.411  0.00  0.00    +0.006 A 
ATOM     10  C18 UNL     1      19.258   8.761  37.238  0.00  0.00    -0.029 A 
ATOM     11  C19 UNL     1      18.120   8.825  38.221  0.00  0.00    +0.045 C 
BRANCH   7  12
ATOM     12  C11 UNL     1      22.541   8.497  34.459  0.00  0.00    +0.003 A 
ATOM     13  C12 UNL     1      23.504   7.478  34.572  0.00  0.00    +0.119 A 
ATOM     14  N3  UNL     1      24.534   7.404  33.687  0.00  0.00    -0.260 NA
ATOM     15  C13 UNL     1      24.674   8.299  32.675  0.00  0.00    +0.149 A 
ATOM     16  C14 UNL     1      23.745   9.329  32.520  0.00  0.00    +0.142 A 
ATOM     17  F4  UNL     1      23.880  10.228  31.515  0.00  0.00    -0.204 F 
ATOM     18  C15 UNL     1      22.676   9.427  33.414  0.00  0.00    +0.050 A 
ENDBRANCH   7  12
ENDBRANCH   3   5
BRANCH   1  20
ATOM     19  N1  UNL     1      16.367  13.412  36.579  0.00  0.00    -0.304 N 
ATOM     20  C6  UNL     1      17.413  12.975  35.694  0.00  0.00    +0.300 C 
ATOM     21  O1  UNL     1      17.461  13.413  34.512  0.00  0.00    -0.265 OA
ATOM     22  H9  UNL     1      16.310  12.992  37.535  0.00  0.00    +0.149 HD
BRANCH  19  23
ATOM     23  C3  UNL     1      15.376  14.423  36.189  0.00  0.00    +0.082 C 
BRANCH  23  25
ATOM     24  C1  UNL     1      14.769  16.914  36.450  0.00  0.00    +0.006 C 
ATOM     25  C2  UNL     1      15.754  15.794  36.795  0.00  0.00    +0.019 C 
ENDBRANCH  23  25
BRANCH  23  26
ATOM     26  C4  UNL     1      13.954  13.933  36.564  0.00  0.00    +0.135 C 
BRANCH  26  27
ATOM     27  C5  UNL     1      12.968  13.871  35.388  0.00  0.00    +0.392 C 
ATOM     28  F1  UNL     1      12.896  12.569  34.927  0.00  0.00    -0.171 F 
ATOM     29  F2  UNL     1      13.389  14.685  34.350  0.00  0.00    -0.171 F 
ATOM     30  F3  UNL     1      11.703  14.257  35.790  0.00  0.00    -0.171 F 
ENDBRANCH  26  27
ENDBRANCH  23  26
ENDBRANCH  19  23
ENDBRANCH   1  20
TORSDOF 7
ENDMDL
MODEL 8
REMARK VINA RESULT:    -5.918     13.943     17.215
REMARK INTER + INTRA:          -9.320
REMARK INTER:                  -8.383
REMARK INTRA:                  -0.937
REMARK UNBOUND:                -0.981
REMARK  Name = /home/qwerty/github/datacon2025hack/step_04_hit_selection/docking/ligands/lig_95.pdb
REMARK  9 active torsions:
REMARK  status: ('A' for Active; 'I' for Inactive)
REMARK    1  A    between atoms: C1_1  and  C2_2
REMARK    2  A    between atoms: C2_2  and  C3_3
REMARK    3  A    between atoms: C3_3  and  C4_4
REMARK    4  A    between atoms: C3_3  and  N1_9
REMARK    5  A    between atoms: C4_4  and  C5_5
REMARK    6  A    between atoms: C6_10  and  C7_12
REMARK    7  A    between atoms: N2_14  and  C8_15
REMARK    8  A    between atoms: C10_17  and  C11_18
REMARK    9  A    between atoms: C18_27  and  C19_28
REMARK                            x       y       z     vdW  Elec       q    Type
REMARK                         _______ _______ _______ _____ _____    ______ ____
ROOT
ATOM      1  C7  UNL     1      10.056  11.792  28.038  0.00  0.00    +0.303 C 
ATOM      2  O2  UNL     1      11.081  11.083  28.233  0.00  0.00    -0.265 OA
ATOM      3  N2  UNL     1      10.004  13.136  28.549  0.00  0.00    -0.277 N 
ATOM      4  H10 UNL     1       9.269  13.779  28.177  0.00  0.00    +0.155 HD
ENDROOT
BRANCH   3   5
ATOM      5  C8  UNL     1      10.962  13.662  29.486  0.00  0.00    +0.037 A 
ATOM      6  C9  UNL     1      10.816  13.405  30.861  0.00  0.00    +0.032 A 
ATOM      7  C10 UNL     1      11.719  13.937  31.797  0.00  0.00    -0.015 A 
ATOM      8  C16 UNL     1      12.769  14.750  31.342  0.00  0.00    +0.009 A 
ATOM      9  C17 UNL     1      12.914  15.025  29.981  0.00  0.00    +0.006 A 
ATOM     10  C18 UNL     1      12.022  14.484  29.044  0.00  0.00    -0.029 A 
ATOM     11  C19 UNL     1      12.205  14.798  27.583  0.00  0.00    +0.045 C 
BRANCH   7  12
ATOM     12  C11 UNL     1      11.558  13.652  33.246  0.00  0.00    +0.003 A 
ATOM     13  C12 UNL     1      12.364  12.694  33.888  0.00  0.00    +0.119 A 
ATOM     14  N3  UNL     1      12.207  12.443  35.216  0.00  0.00    -0.260 NA
ATOM     15  C13 UNL     1      11.279  13.094  35.963  0.00  0.00    +0.149 A 
ATOM     16  C14 UNL     1      10.454  14.053  35.373  0.00  0.00    +0.142 A 
ATOM     17  F4  UNL     1       9.523  14.704  36.111  0.00  0.00    -0.204 F 
ATOM     18  C15 UNL     1      10.595  14.332  34.011  0.00  0.00    +0.050 A 
ENDBRANCH   7  12
ENDBRANCH   3   5
BRANCH   1  20
ATOM     19  N1  UNL     1       8.969   9.894  26.769  0.00  0.00    -0.304 N 
ATOM     20  C6  UNL     1       8.928  11.243  27.263  0.00  0.00    +0.300 C 
ATOM     21  O1  UNL     1       7.920  11.967  27.035  0.00  0.00    -0.265 OA
ATOM     22  H9  UNL     1       9.838   9.331  26.917  0.00  0.00    +0.149 HD
BRANCH  19  23
ATOM     23  C3  UNL     1       7.838   9.279  26.062  0.00  0.00    +0.082 C 
BRANCH  23  25
ATOM     24  C1  UNL     1       8.035   7.791  28.158  0.00  0.00    +0.006 C 
ATOM     25  C2  UNL     1       7.182   8.199  26.954  0.00  0.00    +0.019 C 
ENDBRANCH  23  25
BRANCH  23  26
ATOM     26  C4  UNL     1       8.305   8.761  24.677  0.00  0.00    +0.135 C 
BRANCH  26  27
ATOM     27  C5  UNL     1       8.069   9.738  23.517  0.00  0.00    +0.392 C 
ATOM     28  F1  UNL     1       7.009  10.568  23.833  0.00  0.00    -0.171 F 
ATOM     29  F2  UNL     1       7.762   9.054  22.353  0.00  0.00    -0.171 F 
ATOM     30  F3  UNL     1       9.186  10.525  23.306  0.00  0.00    -0.171 F 
ENDBRANCH  26  27
ENDBRANCH  23  26
ENDBRANCH  19  23
ENDBRANCH   1  20
TORSDOF 7
ENDMDL
MODEL 9
REMARK VINA RESULT:    -5.878     10.947     13.519
REMARK INTER + INTRA:          -9.264
REMARK INTER:                  -8.328
REMARK INTRA:                  -0.936
REMARK UNBOUND:                -0.981
REMARK  Name = /home/qwerty/github/datacon2025hack/step_04_hit_selection/docking/ligands/lig_95.pdb
REMARK  9 active torsions:
REMARK  status: ('A' for Active; 'I' for Inactive)
REMARK    1  A    between atoms: C1_1  and  C2_2
REMARK    2  A    between atoms: C2_2  and  C3_3
REMARK    3  A    between atoms: C3_3  and  C4_4
REMARK    4  A    between atoms: C3_3  and  N1_9
REMARK    5  A    between atoms: C4_4  and  C5_5
REMARK    6  A    between atoms: C6_10  and  C7_12
REMARK    7  A    between atoms: N2_14  and  C8_15
REMARK    8  A    between atoms: C10_17  and  C11_18
REMARK    9  A    between atoms: C18_27  and  C19_28
REMARK                            x       y       z     vdW  Elec       q    Type
REMARK                         _______ _______ _______ _____ _____    ______ ____
ROOT
ATOM      1  C7  UNL     1       8.419   9.770  25.507  0.00  0.00    +0.303 C 
ATOM      2  O2  UNL     1       7.228   9.355  25.475  0.00  0.00    -0.265 OA
ATOM      3  N2  UNL     1       9.280   9.574  24.371  0.00  0.00    -0.277 N 
ATOM      4  H10 UNL     1      10.164  10.128  24.318  0.00  0.00    +0.155 HD
ENDROOT
BRANCH   3   5
ATOM      5  C8  UNL     1       8.944   8.715  23.266  0.00  0.00    +0.037 A 
ATOM      6  C9  UNL     1       9.250   7.344  23.321  0.00  0.00    +0.032 A 
ATOM      7  C10 UNL     1       8.965   6.493  22.240  0.00  0.00    -0.015 A 
ATOM      8  C16 UNL     1       8.379   7.035  21.086  0.00  0.00    +0.009 A 
ATOM      9  C17 UNL     1       8.084   8.398  21.013  0.00  0.00    +0.006 A 
ATOM     10  C18 UNL     1       8.357   9.247  22.096  0.00  0.00    -0.029 A 
ATOM     11  C19 UNL     1       8.028  10.712  21.987  0.00  0.00    +0.045 C 
BRANCH   7  12
ATOM     12  C11 UNL     1       9.286   5.045  22.316  0.00  0.00    +0.003 A 
ATOM     13  C12 UNL     1       8.661   4.213  23.262  0.00  0.00    +0.119 A 
ATOM     14  N3  UNL     1       8.964   2.888  23.320  0.00  0.00    -0.260 NA
ATOM     15  C13 UNL     1       9.870   2.324  22.480  0.00  0.00    +0.149 A 
ATOM     16  C14 UNL     1      10.517   3.106  21.524  0.00  0.00    +0.142 A 
ATOM     17  F4  UNL     1      11.425   2.550  20.685  0.00  0.00    -0.204 F 
ATOM     18  C15 UNL     1      10.225   4.469  21.441  0.00  0.00    +0.050 A 
ENDBRANCH   7  12
ENDBRANCH   3   5
BRANCH   1  20
ATOM     19  N1  UNL     1       8.175  10.428  27.937  0.00  0.00    -0.304 N 
ATOM     20  C6  UNL     1       8.911  10.478  26.703  0.00  0.00    +0.300 C 
ATOM     21  O1  UNL     1       9.988  11.131  26.640  0.00  0.00    -0.265 OA
ATOM     22  H9  UNL     1       7.254   9.931  27.952  0.00  0.00    +0.149 HD
BRANCH  19  23
ATOM     23  C3  UNL     1       8.665  11.050  29.174  0.00  0.00    +0.082 C 
BRANCH  23  25
ATOM     24  C1  UNL     1      10.454  10.104  30.771  0.00  0.00    +0.006 C 
ATOM     25  C2  UNL     1       9.040   9.957  30.201  0.00  0.00    +0.019 C 
ENDBRANCH  23  25
BRANCH  23  26
ATOM     26  C4  UNL     1       7.626  12.077  29.690  0.00  0.00    +0.135 C 
BRANCH  26  27
ATOM     27  C5  UNL     1       7.988  13.545  29.418  0.00  0.00    +0.392 C 
ATOM     28  F1  UNL     1       7.865  13.797  28.064  0.00  0.00    -0.171 F 
ATOM     29  F2  UNL     1       9.292  13.808  29.800  0.00  0.00    -0.171 F 
ATOM     30  F3  UNL     1       7.131  14.392  30.095  0.00  0.00    -0.171 F 
ENDBRANCH  26  27
ENDBRANCH  23  26
ENDBRANCH  19  23
ENDBRANCH   1  20
TORSDOF 7
ENDMDL
