REMARK  Name = /home/qwerty/github/datacon2025hack/step_04_hit_selection/docking/ligands/lig_474.pdb
REMARK  7 active torsions:
REMARK  status: ('A' for Active; 'I' for Inactive)
REMARK    1  A    between atoms: C1_1  and  C2_2
REMARK    2  A    between atoms: C4_4  and  C5_5
REMARK    3  A    between atoms: N1_6  and  C6_7
REMARK    4  A    between atoms: C6_7  and  C7_8
REMARK    5  A    between atoms: C7_8  and  C8_9
REMARK    6  A    between atoms: N2_11  and  C9_12
REMARK    7  A    between atoms: C14_19  and  N3_20
REMARK                            x       y       z     vdW  Elec       q    Type
REMARK                         _______ _______ _______ _____ _____    ______ ____
ROOT
ATOM      1  C9  UNL     1      -1.742   2.145  -0.963  0.00  0.00    +0.058 A 
ATOM      2  C10 UNL     1      -1.869   3.283  -1.780  0.00  0.00    +0.066 A 
ATOM      3  C11 UNL     1      -3.131   3.726  -2.185  0.00  0.00    +0.160 A 
ATOM      4  F1  UNL     1      -3.241   4.826  -2.969  0.00  0.00    -0.202 F 
ATOM      5  C12 UNL     1      -4.278   3.044  -1.771  0.00  0.00    +0.160 A 
ATOM      6  F2  UNL     1      -5.503   3.476  -2.161  0.00  0.00    -0.202 F 
ATOM      7  C13 UNL     1      -4.165   1.920  -0.950  0.00  0.00    +0.066 A 
ATOM      8  C14 UNL     1      -2.904   1.464  -0.543  0.00  0.00    +0.054 A 
ENDROOT
BRANCH   8   9
ATOM      9  N3  UNL     1      -2.809   0.291   0.278  0.00  0.00    -0.328 N 
ATOM     10  C15 UNL     1      -2.320  -0.964  -0.309  0.00  0.00    +0.105 C 
ATOM     11  C16 UNL     1      -2.060  -2.015   0.775  0.00  0.00    +0.019 C 
ATOM     12  C17 UNL     1      -3.287  -2.207   1.682  0.00  0.00    +0.003 C 
ATOM     13  C18 UNL     1      -3.988  -0.887   2.079  0.00  0.00    +0.019 C 
ATOM     14  C19 UNL     1      -3.186   0.360   1.693  0.00  0.00    +0.105 C 
ENDBRANCH   8   9
BRANCH   1  17
ATOM     15  C8  UNL     1       0.695   1.603  -1.354  0.00  0.00    +0.219 C 
ATOM     16  O1  UNL     1       0.604   1.848  -2.587  0.00  0.00    -0.275 OA
ATOM     17  N2  UNL     1      -0.451   1.720  -0.498  0.00  0.00    -0.284 N 
ATOM     18  H12 UNL     1      -0.374   1.347   0.475  0.00  0.00    +0.155 HD
BRANCH  15  19
ATOM     19  C7  UNL     1       1.992   1.099  -0.799  0.00  0.00    +0.119 C 
BRANCH  19  20
ATOM     20  C6  UNL     1       1.962  -0.425  -0.669  0.00  0.00    +0.153 C 
BRANCH  20  26
ATOM     21  C1  UNL     1       5.526  -1.562   2.533  0.00  0.00    +0.067 C 
ATOM     22  C2  UNL     1       4.802  -1.414   1.237  0.00  0.00    +0.060 A 
ATOM     23  C3  UNL     1       5.345  -1.611  -0.019  0.00  0.00    +0.047 A 
ATOM     24  C4  UNL     1       4.322  -1.279  -0.883  0.00  0.00    +0.036 A 
ATOM     25  C5  UNL     1       4.392  -1.321  -2.378  0.00  0.00    +0.065 C 
ATOM     26  N1  UNL     1       3.242  -0.912  -0.159  0.00  0.00    -0.268 N 
ATOM     27  N4  UNL     1       3.533  -0.972   1.131  0.00  0.00    -0.176 NA
ENDBRANCH  20  26
ENDBRANCH  19  20
ENDBRANCH  15  19
ENDBRANCH   1  17
TORSDOF 5
