MODEL 1
REMARK VINA RESULT:    -6.382      0.000      0.000
REMARK INTER + INTRA:          -8.818
REMARK INTER:                  -8.247
REMARK INTRA:                  -0.571
REMARK UNBOUND:                -0.571
REMARK  Name = /home/qwerty/github/datacon2025hack/step_04_hit_selection/docking/ligands/lig_130.pdb
REMARK  9 active torsions:
REMARK  status: ('A' for Active; 'I' for Inactive)
REMARK    1  A    between atoms: C2_2  and  C3_3
REMARK    2  A    between atoms: C3_3  and  C4_4
REMARK    3  A    between atoms: C3_3  and  C5_5
REMARK    4  A    between atoms: C3_3  and  C6_6
REMARK    5  A    between atoms: C6_6  and  C7_7
REMARK    6  A    between atoms: N1_9  and  C8_10
REMARK    7  A    between atoms: C10_13  and  C11_15
REMARK    8  A    between atoms: C15_22  and  C16_23
REMARK    9  A    between atoms: C15_22  and  C17_24
REMARK                            x       y       z     vdW  Elec       q    Type
REMARK                         _______ _______ _______ _____ _____    ______ ____
ROOT
ATOM      1  C8  UNL     1      11.725  13.292  31.413  0.00  0.00    +0.097 C 
ATOM      2  C9  UNL     1      11.166  13.654  32.788  0.00  0.00    +0.131 C 
ATOM      3  N2  UNL     1      12.331  13.799  33.646  0.00  0.00    -0.294 N 
ATOM      4  C10 UNL     1      12.217  14.032  35.064  0.00  0.00    +0.270 C 
ATOM      5  O2  UNL     1      11.081  14.277  35.555  0.00  0.00    -0.268 OA
ATOM      6  C14 UNL     1      13.581  13.773  32.898  0.00  0.00    +0.116 C 
ATOM      7  C15 UNL     1      13.175  13.843  31.411  0.00  0.00    +0.001 C 
ATOM      8  C16 UNL     1      14.107  12.977  30.541  0.00  0.00    +0.014 C 
ATOM      9  C17 UNL     1      13.240  15.311  30.925  0.00  0.00    +0.014 C 
ENDROOT
BRANCH   4  10
ATOM     10  C11 UNL     1      13.384  13.987  35.972  0.00  0.00    +0.182 A 
ATOM     11  N3  UNL     1      13.760  12.917  36.700  0.00  0.00    -0.166 NA
ATOM     12  N4  UNL     1      14.827  13.259  37.406  0.00  0.00    -0.281 N 
ATOM     13  C12 UNL     1      15.148  14.540  37.154  0.00  0.00    +0.144 A 
ATOM     14  C13 UNL     1      14.244  15.034  36.244  0.00  0.00    +0.173 A 
ATOM     15  F1  UNL     1      14.212  16.288  35.730  0.00  0.00    -0.201 F 
ATOM     16  H16 UNL     1      15.329  12.618  38.059  0.00  0.00    +0.188 HD
ENDBRANCH   4  10
BRANCH   1  19
ATOM     17  C7  UNL     1      10.664  13.117  29.107  0.00  0.00    +0.214 C 
ATOM     18  O1  UNL     1      11.121  11.952  28.952  0.00  0.00    -0.276 OA
ATOM     19  N1  UNL     1      10.894  13.832  30.329  0.00  0.00    -0.310 N 
ATOM     20  H12 UNL     1      10.528  14.808  30.407  0.00  0.00    +0.149 HD
BRANCH  17  21
ATOM     21  C6  UNL     1       9.854  13.744  28.004  0.00  0.00    +0.106 C 
BRANCH  21  22
ATOM     22  C3  UNL     1       8.368  13.279  27.972  0.00  0.00    -0.009 C 
ATOM     23  C4  UNL     1       8.259  11.878  27.330  0.00  0.00    +0.016 C 
ATOM     24  C5  UNL     1       7.494  14.265  27.165  0.00  0.00    +0.016 C 
BRANCH  22  26
ATOM     25  C1  UNL     1       7.098  14.144  29.970  0.00  0.00    +0.004 C 
ATOM     26  C2  UNL     1       7.843  13.188  29.401  0.00  0.00    -0.028 C 
ENDBRANCH  22  26
ENDBRANCH  21  22
ENDBRANCH  17  21
ENDBRANCH   1  19
TORSDOF 5
ENDMDL
MODEL 2
REMARK VINA RESULT:    -6.130     12.656     14.713
REMARK INTER + INTRA:          -8.493
REMARK INTER:                  -8.010
REMARK INTRA:                  -0.483
REMARK UNBOUND:                -0.571
REMARK  Name = /home/qwerty/github/datacon2025hack/step_04_hit_selection/docking/ligands/lig_130.pdb
REMARK  9 active torsions:
REMARK  status: ('A' for Active; 'I' for Inactive)
REMARK    1  A    between atoms: C2_2  and  C3_3
REMARK    2  A    between atoms: C3_3  and  C4_4
REMARK    3  A    between atoms: C3_3  and  C5_5
REMARK    4  A    between atoms: C3_3  and  C6_6
REMARK    5  A    between atoms: C6_6  and  C7_7
REMARK    6  A    between atoms: N1_9  and  C8_10
REMARK    7  A    between atoms: C10_13  and  C11_15
REMARK    8  A    between atoms: C15_22  and  C16_23
REMARK    9  A    between atoms: C15_22  and  C17_24
REMARK                            x       y       z     vdW  Elec       q    Type
REMARK                         _______ _______ _______ _____ _____    ______ ____
ROOT
ATOM      1  C8  UNL     1      21.386   3.804  32.294  0.00  0.00    +0.097 C 
ATOM      2  C9  UNL     1      22.587   4.438  32.995  0.00  0.00    +0.131 C 
ATOM      3  N2  UNL     1      22.018   5.313  34.007  0.00  0.00    -0.294 N 
ATOM      4  C10 UNL     1      22.834   6.183  34.816  0.00  0.00    +0.270 C 
ATOM      5  O2  UNL     1      24.089   6.073  34.761  0.00  0.00    -0.268 OA
ATOM      6  C14 UNL     1      20.580   5.132  34.156  0.00  0.00    +0.116 C 
ATOM      7  C15 UNL     1      20.232   3.877  33.329  0.00  0.00    +0.001 C 
ATOM      8  C16 UNL     1      18.863   4.031  32.639  0.00  0.00    +0.014 C 
ATOM      9  C17 UNL     1      20.202   2.638  34.256  0.00  0.00    +0.014 C 
ENDROOT
BRANCH   4  10
ATOM     10  C11 UNL     1      22.255   7.212  35.707  0.00  0.00    +0.182 A 
ATOM     11  N3  UNL     1      22.103   7.088  37.041  0.00  0.00    -0.166 NA
ATOM     12  N4  UNL     1      21.529   8.194  37.491  0.00  0.00    -0.281 N 
ATOM     13  C12 UNL     1      21.299   9.036  36.467  0.00  0.00    +0.144 A 
ATOM     14  C13 UNL     1      21.748   8.437  35.315  0.00  0.00    +0.173 A 
ATOM     15  F1  UNL     1      21.699   8.949  34.061  0.00  0.00    -0.201 F 
ATOM     16  H16 UNL     1      21.295   8.369  38.493  0.00  0.00    +0.188 HD
ENDBRANCH   4  10
BRANCH   1  19
ATOM     17  C7  UNL     1      21.100   1.881  30.653  0.00  0.00    +0.214 C 
ATOM     18  O1  UNL     1      20.363   2.584  29.910  0.00  0.00    -0.276 OA
ATOM     19  N1  UNL     1      21.678   2.438  31.842  0.00  0.00    -0.310 N 
ATOM     20  H12 UNL     1      22.256   1.814  32.450  0.00  0.00    +0.149 HD
BRANCH  17  21
ATOM     21  C6  UNL     1      21.387   0.454  30.270  0.00  0.00    +0.106 C 
BRANCH  21  22
ATOM     22  C3  UNL     1      22.302   0.311  29.018  0.00  0.00    -0.009 C 
ATOM     23  C4  UNL     1      23.565   1.187  29.175  0.00  0.00    +0.016 C 
ATOM     24  C5  UNL     1      21.557   0.739  27.734  0.00  0.00    +0.016 C 
BRANCH  22  26
ATOM     25  C1  UNL     1      24.031  -1.517  28.876  0.00  0.00    +0.004 C 
ATOM     26  C2  UNL     1      22.745  -1.142  28.887  0.00  0.00    -0.028 C 
ENDBRANCH  22  26
ENDBRANCH  21  22
ENDBRANCH  17  21
ENDBRANCH   1  19
TORSDOF 5
ENDMDL
MODEL 3
REMARK VINA RESULT:    -5.865     15.159     18.230
REMARK INTER + INTRA:          -8.150
REMARK INTER:                  -7.628
REMARK INTRA:                  -0.522
REMARK UNBOUND:                -0.571
REMARK  Name = /home/qwerty/github/datacon2025hack/step_04_hit_selection/docking/ligands/lig_130.pdb
REMARK  9 active torsions:
REMARK  status: ('A' for Active; 'I' for Inactive)
REMARK    1  A    between atoms: C2_2  and  C3_3
REMARK    2  A    between atoms: C3_3  and  C4_4
REMARK    3  A    between atoms: C3_3  and  C5_5
REMARK    4  A    between atoms: C3_3  and  C6_6
REMARK    5  A    between atoms: C6_6  and  C7_7
REMARK    6  A    between atoms: N1_9  and  C8_10
REMARK    7  A    between atoms: C10_13  and  C11_15
REMARK    8  A    between atoms: C15_22  and  C16_23
REMARK    9  A    between atoms: C15_22  and  C17_24
REMARK                            x       y       z     vdW  Elec       q    Type
REMARK                         _______ _______ _______ _____ _____    ______ ____
ROOT
ATOM      1  C8  UNL     1      19.393   1.449  25.770  0.00  0.00    +0.097 C 
ATOM      2  C9  UNL     1      18.944   0.136  25.128  0.00  0.00    +0.131 C 
ATOM      3  N2  UNL     1      18.023   0.526  24.073  0.00  0.00    -0.294 N 
ATOM      4  C10 UNL     1      17.290  -0.444  23.297  0.00  0.00    +0.270 C 
ATOM      5  O2  UNL     1      17.568  -1.667  23.424  0.00  0.00    -0.268 OA
ATOM      6  C14 UNL     1      18.010   1.965  23.846  0.00  0.00    +0.116 C 
ATOM      7  C15 UNL     1      19.187   2.525  24.672  0.00  0.00    +0.001 C 
ATOM      8  C16 UNL     1      18.833   3.894  25.282  0.00  0.00    +0.014 C 
ATOM      9  C17 UNL     1      20.431   2.675  23.763  0.00  0.00    +0.014 C 
ENDROOT
BRANCH   4  10
ATOM     10  C11 UNL     1      16.212  -0.059  22.360  0.00  0.00    +0.182 A 
ATOM     11  N3  UNL     1      16.296  -0.113  21.015  0.00  0.00    -0.166 NA
ATOM     12  N4  UNL     1      15.152   0.333  20.518  0.00  0.00    -0.281 N 
ATOM     13  C12 UNL     1      14.325   0.682  21.519  0.00  0.00    +0.144 A 
ATOM     14  C13 UNL     1      14.973   0.447  22.708  0.00  0.00    +0.173 A 
ATOM     15  F1  UNL     1      14.490   0.669  23.954  0.00  0.00    -0.201 F 
ATOM     16  H16 UNL     1      14.941   0.398  19.498  0.00  0.00    +0.188 HD
ENDBRANCH   4  10
BRANCH   1  19
ATOM     17  C7  UNL     1      21.196   1.990  27.481  0.00  0.00    +0.214 C 
ATOM     18  O1  UNL     1      20.360   2.575  28.222  0.00  0.00    -0.276 OA
ATOM     19  N1  UNL     1      20.775   1.370  26.258  0.00  0.00    -0.310 N 
ATOM     20  H12 UNL     1      21.503   0.925  25.654  0.00  0.00    +0.149 HD
BRANCH  17  21
ATOM     21  C6  UNL     1      22.640   1.931  27.903  0.00  0.00    +0.106 C 
BRANCH  21  22
ATOM     22  C3  UNL     1      22.888   1.068  29.176  0.00  0.00    -0.009 C 
ATOM     23  C4  UNL     1      22.370   1.805  30.431  0.00  0.00    +0.016 C 
ATOM     24  C5  UNL     1      24.393   0.770  29.360  0.00  0.00    +0.016 C 
BRANCH  22  26
ATOM     25  C1  UNL     1      22.695  -1.392  28.663  0.00  0.00    +0.004 C 
ATOM     26  C2  UNL     1      22.122  -0.244  29.047  0.00  0.00    -0.028 C 
ENDBRANCH  22  26
ENDBRANCH  21  22
ENDBRANCH  17  21
ENDBRANCH   1  19
TORSDOF 5
ENDMDL
MODEL 4
REMARK VINA RESULT:    -5.847      6.993     11.514
REMARK INTER + INTRA:          -8.127
REMARK INTER:                  -7.700
REMARK INTRA:                  -0.427
REMARK UNBOUND:                -0.571
REMARK  Name = /home/qwerty/github/datacon2025hack/step_04_hit_selection/docking/ligands/lig_130.pdb
REMARK  9 active torsions:
REMARK  status: ('A' for Active; 'I' for Inactive)
REMARK    1  A    between atoms: C2_2  and  C3_3
REMARK    2  A    between atoms: C3_3  and  C4_4
REMARK    3  A    between atoms: C3_3  and  C5_5
REMARK    4  A    between atoms: C3_3  and  C6_6
REMARK    5  A    between atoms: C6_6  and  C7_7
REMARK    6  A    between atoms: N1_9  and  C8_10
REMARK    7  A    between atoms: C10_13  and  C11_15
REMARK    8  A    between atoms: C15_22  and  C16_23
REMARK    9  A    between atoms: C15_22  and  C17_24
REMARK                            x       y       z     vdW  Elec       q    Type
REMARK                         _______ _______ _______ _____ _____    ______ ____
ROOT
ATOM      1  C8  UNL     1       9.007   9.554  25.933  0.00  0.00    +0.097 C 
ATOM      2  C9  UNL     1       8.498   9.825  24.518  0.00  0.00    +0.131 C 
ATOM      3  N2  UNL     1       8.684   8.573  23.801  0.00  0.00    -0.294 N 
ATOM      4  C10 UNL     1       8.424   8.451  22.388  0.00  0.00    +0.270 C 
ATOM      5  O2  UNL     1       7.870   9.408  21.783  0.00  0.00    -0.268 OA
ATOM      6  C14 UNL     1       9.062   7.477  24.683  0.00  0.00    +0.116 C 
ATOM      7  C15 UNL     1       8.885   8.018  26.117  0.00  0.00    +0.001 C 
ATOM      8  C16 UNL     1       9.979   7.473  27.054  0.00  0.00    +0.014 C 
ATOM      9  C17 UNL     1       7.494   7.605  26.658  0.00  0.00    +0.014 C 
ENDROOT
BRANCH   4  10
ATOM     10  C11 UNL     1       8.792   7.245  21.615  0.00  0.00    +0.182 A 
ATOM     11  N3  UNL     1       9.710   7.205  20.628  0.00  0.00    -0.166 NA
ATOM     12  N4  UNL     1       9.748   5.967  20.157  0.00  0.00    -0.281 N 
ATOM     13  C12 UNL     1       8.863   5.201  20.820  0.00  0.00    +0.144 A 
ATOM     14  C13 UNL     1       8.235   5.987  21.755  0.00  0.00    +0.173 A 
ATOM     15  F1  UNL     1       7.271   5.601  22.626  0.00  0.00    -0.201 F 
ATOM     16  H16 UNL     1      10.375   5.652  19.385  0.00  0.00    +0.188 HD
ENDBRANCH   4  10
BRANCH   1  19
ATOM     17  C7  UNL     1       8.877  10.857  28.115  0.00  0.00    +0.214 C 
ATOM     18  O1  UNL     1      10.120  10.738  28.294  0.00  0.00    -0.276 OA
ATOM     19  N1  UNL     1       8.258  10.322  26.936  0.00  0.00    -0.310 N 
ATOM     20  H12 UNL     1       7.221  10.411  26.839  0.00  0.00    +0.149 HD
BRANCH  17  21
ATOM     21  C6  UNL     1       8.050  11.585  29.140  0.00  0.00    +0.106 C 
BRANCH  21  22
ATOM     22  C3  UNL     1       8.244  13.130  29.122  0.00  0.00    -0.009 C 
ATOM     23  C4  UNL     1       9.609  13.506  29.742  0.00  0.00    +0.016 C 
ATOM     24  C5  UNL     1       7.125  13.839  29.918  0.00  0.00    +0.016 C 
BRANCH  22  26
ATOM     25  C1  UNL     1       7.327  14.492  27.210  0.00  0.00    +0.004 C 
ATOM     26  C2  UNL     1       8.229  13.619  27.678  0.00  0.00    -0.028 C 
ENDBRANCH  22  26
ENDBRANCH  21  22
ENDBRANCH  17  21
ENDBRANCH   1  19
TORSDOF 5
ENDMDL
MODEL 5
REMARK VINA RESULT:    -5.818     12.773     13.867
REMARK INTER + INTRA:          -8.090
REMARK INTER:                  -7.161
REMARK INTRA:                  -0.929
REMARK UNBOUND:                -0.571
REMARK  Name = /home/qwerty/github/datacon2025hack/step_04_hit_selection/docking/ligands/lig_130.pdb
REMARK  9 active torsions:
REMARK  status: ('A' for Active; 'I' for Inactive)
REMARK    1  A    between atoms: C2_2  and  C3_3
REMARK    2  A    between atoms: C3_3  and  C4_4
REMARK    3  A    between atoms: C3_3  and  C5_5
REMARK    4  A    between atoms: C3_3  and  C6_6
REMARK    5  A    between atoms: C6_6  and  C7_7
REMARK    6  A    between atoms: N1_9  and  C8_10
REMARK    7  A    between atoms: C10_13  and  C11_15
REMARK    8  A    between atoms: C15_22  and  C16_23
REMARK    9  A    between atoms: C15_22  and  C17_24
REMARK                            x       y       z     vdW  Elec       q    Type
REMARK                         _______ _______ _______ _____ _____    ______ ____
ROOT
ATOM      1  C8  UNL     1      21.225   5.213  31.635  0.00  0.00    +0.097 C 
ATOM      2  C9  UNL     1      22.239   6.237  32.144  0.00  0.00    +0.131 C 
ATOM      3  N2  UNL     1      21.975   6.355  33.570  0.00  0.00    -0.294 N 
ATOM      4  C10 UNL     1      22.658   7.316  34.400  0.00  0.00    +0.270 C 
ATOM      5  O2  UNL     1      23.624   7.966  33.916  0.00  0.00    -0.268 OA
ATOM      6  C14 UNL     1      21.036   5.349  34.048  0.00  0.00    +0.116 C 
ATOM      7  C15 UNL     1      20.853   4.362  32.877  0.00  0.00    +0.001 C 
ATOM      8  C16 UNL     1      19.401   3.856  32.801  0.00  0.00    +0.014 C 
ATOM      9  C17 UNL     1      21.807   3.157  33.063  0.00  0.00    +0.014 C 
ENDROOT
BRANCH   4  10
ATOM     10  C11 UNL     1      22.262   7.577  35.801  0.00  0.00    +0.182 A 
ATOM     11  N3  UNL     1      21.435   8.563  36.203  0.00  0.00    -0.166 NA
ATOM     12  N4  UNL     1      21.337   8.500  37.523  0.00  0.00    -0.281 N 
ATOM     13  C12 UNL     1      22.093   7.489  37.988  0.00  0.00    +0.144 A 
ATOM     14  C13 UNL     1      22.699   6.882  36.913  0.00  0.00    +0.173 A 
ATOM     15  F1  UNL     1      23.547   5.825  36.949  0.00  0.00    -0.201 F 
ATOM     16  H16 UNL     1      20.757   9.147  38.100  0.00  0.00    +0.188 HD
ENDBRANCH   4  10
BRANCH   1  19
ATOM     17  C7  UNL     1      20.971   4.041  29.390  0.00  0.00    +0.214 C 
ATOM     18  O1  UNL     1      19.781   4.445  29.281  0.00  0.00    -0.276 OA
ATOM     19  N1  UNL     1      21.765   4.420  30.524  0.00  0.00    -0.310 N 
ATOM     20  H12 UNL     1      22.736   4.038  30.596  0.00  0.00    +0.149 HD
BRANCH  17  21
ATOM     21  C6  UNL     1      21.559   3.175  28.310  0.00  0.00    +0.106 C 
BRANCH  21  22
ATOM     22  C3  UNL     1      21.556   1.655  28.651  0.00  0.00    -0.009 C 
ATOM     23  C4  UNL     1      22.940   1.224  29.189  0.00  0.00    +0.016 C 
ATOM     24  C5  UNL     1      21.221   0.806  27.404  0.00  0.00    +0.016 C 
BRANCH  22  26
ATOM     25  C1  UNL     1      20.681   0.462  30.692  0.00  0.00    +0.004 C 
ATOM     26  C2  UNL     1      20.521   1.390  29.739  0.00  0.00    -0.028 C 
ENDBRANCH  22  26
ENDBRANCH  21  22
ENDBRANCH  17  21
ENDBRANCH   1  19
TORSDOF 5
ENDMDL
MODEL 6
REMARK VINA RESULT:    -5.727      1.277      1.797
REMARK INTER + INTRA:          -7.972
REMARK INTER:                  -7.447
REMARK INTRA:                  -0.525
REMARK UNBOUND:                -0.571
REMARK  Name = /home/qwerty/github/datacon2025hack/step_04_hit_selection/docking/ligands/lig_130.pdb
REMARK  9 active torsions:
REMARK  status: ('A' for Active; 'I' for Inactive)
REMARK    1  A    between atoms: C2_2  and  C3_3
REMARK    2  A    between atoms: C3_3  and  C4_4
REMARK    3  A    between atoms: C3_3  and  C5_5
REMARK    4  A    between atoms: C3_3  and  C6_6
REMARK    5  A    between atoms: C6_6  and  C7_7
REMARK    6  A    between atoms: N1_9  and  C8_10
REMARK    7  A    between atoms: C10_13  and  C11_15
REMARK    8  A    between atoms: C15_22  and  C16_23
REMARK    9  A    between atoms: C15_22  and  C17_24
REMARK                            x       y       z     vdW  Elec       q    Type
REMARK                         _______ _______ _______ _____ _____    ______ ____
ROOT
ATOM      1  C8  UNL     1      11.909  13.221  31.509  0.00  0.00    +0.097 C 
ATOM      2  C9  UNL     1      11.494  13.656  32.914  0.00  0.00    +0.131 C 
ATOM      3  N2  UNL     1      12.735  13.738  33.668  0.00  0.00    -0.294 N 
ATOM      4  C10 UNL     1      12.758  14.014  35.083  0.00  0.00    +0.270 C 
ATOM      5  O2  UNL     1      11.688  14.350  35.658  0.00  0.00    -0.268 OA
ATOM      6  C14 UNL     1      13.912  13.604  32.820  0.00  0.00    +0.116 C 
ATOM      7  C15 UNL     1      13.388  13.667  31.370  0.00  0.00    +0.001 C 
ATOM      8  C16 UNL     1      14.181  12.716  30.453  0.00  0.00    +0.014 C 
ATOM      9  C17 UNL     1      13.513  15.115  30.837  0.00  0.00    +0.014 C 
ENDROOT
BRANCH   4  10
ATOM     10  C11 UNL     1      13.992  13.908  35.892  0.00  0.00    +0.182 A 
ATOM     11  N3  UNL     1      14.777  14.943  36.250  0.00  0.00    -0.166 NA
ATOM     12  N4  UNL     1      15.797  14.460  36.944  0.00  0.00    -0.281 N 
ATOM     13  C12 UNL     1      15.691  13.123  37.039  0.00  0.00    +0.144 A 
ATOM     14  C13 UNL     1      14.550  12.739  36.375  0.00  0.00    +0.173 A 
ATOM     15  F1  UNL     1      14.082  11.475  36.230  0.00  0.00    -0.201 F 
ATOM     16  H16 UNL     1      16.562  15.045  37.347  0.00  0.00    +0.188 HD
ENDBRANCH   4  10
BRANCH   1  19
ATOM     17  C7  UNL     1      10.671  13.076  29.291  0.00  0.00    +0.214 C 
ATOM     18  O1  UNL     1      11.054  11.887  29.121  0.00  0.00    -0.276 OA
ATOM     19  N1  UNL     1      11.029  13.792  30.482  0.00  0.00    -0.310 N 
ATOM     20  H12 UNL     1      10.721  14.787  30.571  0.00  0.00    +0.149 HD
BRANCH  17  21
ATOM     21  C6  UNL     1       9.815  13.734  28.242  0.00  0.00    +0.106 C 
BRANCH  21  22
ATOM     22  C3  UNL     1       8.306  13.361  28.338  0.00  0.00    -0.009 C 
ATOM     23  C4  UNL     1       7.485  14.177  27.314  0.00  0.00    +0.016 C 
ATOM     24  C5  UNL     1       7.753  13.640  29.754  0.00  0.00    +0.016 C 
BRANCH  22  26
ATOM     25  C1  UNL     1       8.451  11.354  26.820  0.00  0.00    +0.004 C 
ATOM     26  C2  UNL     1       8.135  11.881  28.010  0.00  0.00    -0.028 C 
ENDBRANCH  22  26
ENDBRANCH  21  22
ENDBRANCH  17  21
ENDBRANCH   1  19
TORSDOF 5
ENDMDL
MODEL 7
REMARK VINA RESULT:    -5.688      7.157     11.572
REMARK INTER + INTRA:          -7.922
REMARK INTER:                  -7.059
REMARK INTRA:                  -0.863
REMARK UNBOUND:                -0.571
REMARK  Name = /home/qwerty/github/datacon2025hack/step_04_hit_selection/docking/ligands/lig_130.pdb
REMARK  9 active torsions:
REMARK  status: ('A' for Active; 'I' for Inactive)
REMARK    1  A    between atoms: C2_2  and  C3_3
REMARK    2  A    between atoms: C3_3  and  C4_4
REMARK    3  A    between atoms: C3_3  and  C5_5
REMARK    4  A    between atoms: C3_3  and  C6_6
REMARK    5  A    between atoms: C6_6  and  C7_7
REMARK    6  A    between atoms: N1_9  and  C8_10
REMARK    7  A    between atoms: C10_13  and  C11_15
REMARK    8  A    between atoms: C15_22  and  C16_23
REMARK    9  A    between atoms: C15_22  and  C17_24
REMARK                            x       y       z     vdW  Elec       q    Type
REMARK                         _______ _______ _______ _____ _____    ______ ____
ROOT
ATOM      1  C8  UNL     1       9.261   9.508  25.531  0.00  0.00    +0.097 C 
ATOM      2  C9  UNL     1       8.844   9.455  24.062  0.00  0.00    +0.131 C 
ATOM      3  N2  UNL     1       8.647   8.044  23.773  0.00  0.00    -0.294 N 
ATOM      4  C10 UNL     1       8.352   7.565  22.446  0.00  0.00    +0.270 C 
ATOM      5  O2  UNL     1       8.099   8.400  21.536  0.00  0.00    -0.268 OA
ATOM      6  C14 UNL     1       8.691   7.218  24.973  0.00  0.00    +0.116 C 
ATOM      7  C15 UNL     1       8.693   8.207  26.157  0.00  0.00    +0.001 C 
ATOM      8  C16 UNL     1       9.585   7.696  27.304  0.00  0.00    +0.014 C 
ATOM      9  C17 UNL     1       7.247   8.394  26.677  0.00  0.00    +0.014 C 
ENDROOT
BRANCH   4  10
ATOM     10  C11 UNL     1       8.342   6.126  22.105  0.00  0.00    +0.182 A 
ATOM     11  N3  UNL     1       7.235   5.384  21.899  0.00  0.00    -0.166 NA
ATOM     12  N4  UNL     1       7.618   4.142  21.644  0.00  0.00    -0.281 N 
ATOM     13  C12 UNL     1       8.960   4.062  21.686  0.00  0.00    +0.144 A 
ATOM     14  C13 UNL     1       9.452   5.311  21.981  0.00  0.00    +0.173 A 
ATOM     15  F1  UNL     1      10.754   5.659  22.121  0.00  0.00    -0.201 F 
ATOM     16  H16 UNL     1       6.963   3.355  21.444  0.00  0.00    +0.188 HD
ENDBRANCH   4  10
BRANCH   1  19
ATOM     17  C7  UNL     1       9.637  11.565  26.981  0.00  0.00    +0.214 C 
ATOM     18  O1  UNL     1      10.867  11.306  27.081  0.00  0.00    -0.276 OA
ATOM     19  N1  UNL     1       8.780  10.729  26.189  0.00  0.00    -0.310 N 
ATOM     20  H12 UNL     1       7.761  10.957  26.158  0.00  0.00    +0.149 HD
BRANCH  17  21
ATOM     21  C6  UNL     1       9.077  12.772  27.683  0.00  0.00    +0.106 C 
BRANCH  21  22
ATOM     22  C3  UNL     1       8.855  12.564  29.211  0.00  0.00    -0.009 C 
ATOM     23  C4  UNL     1       7.582  13.307  29.674  0.00  0.00    +0.016 C 
ATOM     24  C5  UNL     1      10.060  13.090  30.024  0.00  0.00    +0.016 C 
BRANCH  22  26
ATOM     25  C1  UNL     1       7.464  10.517  29.689  0.00  0.00    +0.004 C 
ATOM     26  C2  UNL     1       8.665  11.077  29.489  0.00  0.00    -0.028 C 
ENDBRANCH  22  26
ENDBRANCH  21  22
ENDBRANCH  17  21
ENDBRANCH   1  19
TORSDOF 5
ENDMDL
MODEL 8
REMARK VINA RESULT:    -5.662      1.387      1.937
REMARK INTER + INTRA:          -7.888
REMARK INTER:                  -6.992
REMARK INTRA:                  -0.896
REMARK UNBOUND:                -0.571
REMARK  Name = /home/qwerty/github/datacon2025hack/step_04_hit_selection/docking/ligands/lig_130.pdb
REMARK  9 active torsions:
REMARK  status: ('A' for Active; 'I' for Inactive)
REMARK    1  A    between atoms: C2_2  and  C3_3
REMARK    2  A    between atoms: C3_3  and  C4_4
REMARK    3  A    between atoms: C3_3  and  C5_5
REMARK    4  A    between atoms: C3_3  and  C6_6
REMARK    5  A    between atoms: C6_6  and  C7_7
REMARK    6  A    between atoms: N1_9  and  C8_10
REMARK    7  A    between atoms: C10_13  and  C11_15
REMARK    8  A    between atoms: C15_22  and  C16_23
REMARK    9  A    between atoms: C15_22  and  C17_24
REMARK                            x       y       z     vdW  Elec       q    Type
REMARK                         _______ _______ _______ _____ _____    ______ ____
ROOT
ATOM      1  C8  UNL     1      11.988  11.980  32.272  0.00  0.00    +0.097 C 
ATOM      2  C9  UNL     1      11.747  12.082  33.778  0.00  0.00    +0.131 C 
ATOM      3  N2  UNL     1      12.843  12.893  34.283  0.00  0.00    -0.294 N 
ATOM      4  C10 UNL     1      13.037  13.130  35.692  0.00  0.00    +0.270 C 
ATOM      5  O2  UNL     1      12.147  12.758  36.504  0.00  0.00    -0.268 OA
ATOM      6  C14 UNL     1      13.633  13.491  33.215  0.00  0.00    +0.116 C 
ATOM      7  C15 UNL     1      12.844  13.224  31.917  0.00  0.00    +0.001 C 
ATOM      8  C16 UNL     1      13.796  12.936  30.740  0.00  0.00    +0.014 C 
ATOM      9  C17 UNL     1      11.970  14.456  31.579  0.00  0.00    +0.014 C 
ENDROOT
BRANCH   4  10
ATOM     10  C11 UNL     1      14.250  13.787  36.227  0.00  0.00    +0.182 A 
ATOM     11  N3  UNL     1      15.244  13.161  36.888  0.00  0.00    -0.166 NA
ATOM     12  N4  UNL     1      16.142  14.073  37.232  0.00  0.00    -0.281 N 
ATOM     13  C12 UNL     1      15.744  15.286  36.809  0.00  0.00    +0.144 A 
ATOM     14  C13 UNL     1      14.538  15.137  36.165  0.00  0.00    +0.173 A 
ATOM     15  F1  UNL     1      13.795  16.118  35.596  0.00  0.00    -0.201 F 
ATOM     16  H16 UNL     1      17.020  13.864  37.756  0.00  0.00    +0.188 HD
ENDBRANCH   4  10
BRANCH   1  19
ATOM     17  C7  UNL     1      10.554  11.047  30.388  0.00  0.00    +0.214 C 
ATOM     18  O1  UNL     1      11.477  10.264  30.034  0.00  0.00    -0.276 OA
ATOM     19  N1  UNL     1      10.727  11.907  31.524  0.00  0.00    -0.310 N 
ATOM     20  H12 UNL     1       9.953  12.566  31.766  0.00  0.00    +0.149 HD
BRANCH  17  21
ATOM     21  C6  UNL     1       9.260  11.057  29.621  0.00  0.00    +0.106 C 
BRANCH  21  22
ATOM     22  C3  UNL     1       9.083  12.304  28.703  0.00  0.00    -0.009 C 
ATOM     23  C4  UNL     1       8.306  13.412  29.448  0.00  0.00    +0.016 C 
ATOM     24  C5  UNL     1       8.315  11.939  27.413  0.00  0.00    +0.016 C 
BRANCH  22  26
ATOM     25  C1  UNL     1      10.665  14.125  27.973  0.00  0.00    +0.004 C 
ATOM     26  C2  UNL     1      10.458  12.853  28.337  0.00  0.00    -0.028 C 
ENDBRANCH  22  26
ENDBRANCH  21  22
ENDBRANCH  17  21
ENDBRANCH   1  19
TORSDOF 5
ENDMDL
MODEL 9
REMARK VINA RESULT:    -5.599     15.217     17.890
REMARK INTER + INTRA:          -7.807
REMARK INTER:                  -6.832
REMARK INTRA:                  -0.976
REMARK UNBOUND:                -0.571
REMARK  Name = /home/qwerty/github/datacon2025hack/step_04_hit_selection/docking/ligands/lig_130.pdb
REMARK  9 active torsions:
REMARK  status: ('A' for Active; 'I' for Inactive)
REMARK    1  A    between atoms: C2_2  and  C3_3
REMARK    2  A    between atoms: C3_3  and  C4_4
REMARK    3  A    between atoms: C3_3  and  C5_5
REMARK    4  A    between atoms: C3_3  and  C6_6
REMARK    5  A    between atoms: C6_6  and  C7_7
REMARK    6  A    between atoms: N1_9  and  C8_10
REMARK    7  A    between atoms: C10_13  and  C11_15
REMARK    8  A    between atoms: C15_22  and  C16_23
REMARK    9  A    between atoms: C15_22  and  C17_24
REMARK                            x       y       z     vdW  Elec       q    Type
REMARK                         _______ _______ _______ _____ _____    ______ ____
ROOT
ATOM      1  C8  UNL     1      17.899   1.296  25.892  0.00  0.00    +0.097 C 
ATOM      2  C9  UNL     1      17.090   0.117  25.353  0.00  0.00    +0.131 C 
ATOM      3  N2  UNL     1      16.957   0.368  23.927  0.00  0.00    -0.294 N 
ATOM      4  C10 UNL     1      16.156  -0.472  23.071  0.00  0.00    +0.270 C 
ATOM      5  O2  UNL     1      15.683  -1.544  23.535  0.00  0.00    -0.268 OA
ATOM      6  C14 UNL     1      17.785   1.479  23.477  0.00  0.00    +0.116 C 
ATOM      7  C15 UNL     1      18.696   1.828  24.672  0.00  0.00    +0.001 C 
ATOM      8  C16 UNL     1      18.927   3.348  24.767  0.00  0.00    +0.014 C 
ATOM      9  C17 UNL     1      20.059   1.112  24.510  0.00  0.00    +0.014 C 
ENDROOT
BRANCH   4  10
ATOM     10  C11 UNL     1      15.858  -0.117  21.666  0.00  0.00    +0.182 A 
ATOM     11  N3  UNL     1      16.432  -0.682  20.585  0.00  0.00    -0.166 NA
ATOM     12  N4  UNL     1      15.937  -0.093  19.507  0.00  0.00    -0.281 N 
ATOM     13  C12 UNL     1      15.051   0.852  19.870  0.00  0.00    +0.144 A 
ATOM     14  C13 UNL     1      14.981   0.863  21.243  0.00  0.00    +0.173 A 
ATOM     15  F1  UNL     1      14.210   1.673  22.010  0.00  0.00    -0.201 F 
ATOM     16  H16 UNL     1      16.206  -0.337  18.528  0.00  0.00    +0.188 HD
ENDBRANCH   4  10
BRANCH   1  19
ATOM     17  C7  UNL     1      18.966   1.746  28.158  0.00  0.00    +0.214 C 
ATOM     18  O1  UNL     1      18.361   2.847  28.258  0.00  0.00    -0.276 OA
ATOM     19  N1  UNL     1      18.753   0.900  27.019  0.00  0.00    -0.310 N 
ATOM     20  H12 UNL     1      19.299   0.010  26.955  0.00  0.00    +0.149 HD
BRANCH  17  21
ATOM     21  C6  UNL     1      19.901   1.315  29.256  0.00  0.00    +0.106 C 
BRANCH  21  22
ATOM     22  C3  UNL     1      21.407   1.530  28.920  0.00  0.00    -0.009 C 
ATOM     23  C4  UNL     1      21.994   0.265  28.255  0.00  0.00    +0.016 C 
ATOM     24  C5  UNL     1      22.221   1.844  30.196  0.00  0.00    +0.016 C 
BRANCH  22  26
ATOM     25  C1  UNL     1      22.439   2.709  26.946  0.00  0.00    +0.004 C 
ATOM     26  C2  UNL     1      21.538   2.688  27.937  0.00  0.00    -0.028 C 
ENDBRANCH  22  26
ENDBRANCH  21  22
ENDBRANCH  17  21
ENDBRANCH   1  19
TORSDOF 5
ENDMDL
