MODEL 1
REMARK VINA RESULT:    -5.680      0.000      0.000
REMARK INTER + INTRA:          -7.584
REMARK INTER:                  -7.008
REMARK INTRA:                  -0.576
REMARK UNBOUND:                -0.576
REMARK  Name = /home/qwerty/github/datacon2025hack/step_04_hit_selection/docking/ligands/lig_496.pdb
REMARK  7 active torsions:
REMARK  status: ('A' for Active; 'I' for Inactive)
REMARK    1  A    between atoms: C1_1  and  C2_2
REMARK    2  A    between atoms: C2_2  and  C3_3
REMARK    3  A    between atoms: C2_2  and  C4_4
REMARK    4  A    between atoms: C6_8  and  C7_9
REMARK    5  A    between atoms: C7_9  and  N2_10
REMARK    6  A    between atoms: C13_17  and  C14_19
REMARK    7  A    between atoms: N5_22  and  C16_23
REMARK                            x       y       z     vdW  Elec       q    Type
REMARK                         _______ _______ _______ _____ _____    ______ ____
ROOT
ATOM      1  N2  UNL     1       9.771   7.846  21.732  0.00  0.00    -0.290 NA
ATOM      2  C8  UNL     1       8.757   8.837  21.313  0.00  0.00    +0.107 C 
ATOM      3  C9  UNL     1       9.207  10.125  22.016  0.00  0.00    +0.092 C 
ATOM      4  C10 UNL     1      10.695  10.029  21.819  0.00  0.00    +0.044 C 
ATOM      5  C11 UNL     1      10.767   8.656  22.465  0.00  0.00    +0.076 C 
ATOM      6  C12 UNL     1      10.139   8.961  23.833  0.00  0.00    +0.127 C 
ATOM      7  N3  UNL     1       9.084   9.904  23.458  0.00  0.00    -0.289 N 
ATOM      8  C13 UNL     1       7.914  10.217  24.232  0.00  0.00    +0.286 C 
ATOM      9  O2  UNL     1       6.905  10.708  23.656  0.00  0.00    -0.267 OA
ENDROOT
BRANCH   8  10
ATOM     10  C14 UNL     1       7.860   9.999  25.689  0.00  0.00    +0.236 A 
ATOM     11  N4  UNL     1       7.413   8.850  26.249  0.00  0.00    -0.211 NA
ATOM     12  C15 UNL     1       7.519   9.110  27.566  0.00  0.00    +0.219 A 
ATOM     13  N5  UNL     1       8.008  10.343  27.778  0.00  0.00    -0.254 N 
ATOM     14  C16 UNL     1       8.187  11.001  29.064  0.00  0.00    +0.174 C 
ATOM     15  N6  UNL     1       8.211  10.919  26.608  0.00  0.00    -0.145 NA
ENDBRANCH   8  10
BRANCH   1  16
ATOM     16  C7  UNL     1      10.302   6.984  20.652  0.00  0.00    +0.143 C 
BRANCH  16  21
ATOM     17  C4  UNL     1       9.214   4.777  21.503  0.00  0.00    +0.132 A 
ATOM     18  O1  UNL     1       9.590   3.523  21.552  0.00  0.00    -0.447 OA
ATOM     19  C5  UNL     1      10.800   3.455  21.044  0.00  0.00    +0.308 A 
ATOM     20  N1  UNL     1      11.258   4.658  20.641  0.00  0.00    -0.220 NA
ATOM     21  C6  UNL     1      10.251   5.502  20.939  0.00  0.00    +0.097 A 
BRANCH  17  23
ATOM     22  C1  UNL     1       7.247   4.257  22.940  0.00  0.00    +0.015 C 
ATOM     23  C2  UNL     1       7.864   5.262  21.964  0.00  0.00    +0.051 C 
ATOM     24  C3  UNL     1       6.948   5.480  20.757  0.00  0.00    +0.015 C 
ENDBRANCH  17  23
ENDBRANCH  16  21
ENDBRANCH   1  16
TORSDOF 4
ENDMDL
MODEL 2
REMARK VINA RESULT:    -5.637     10.704     13.910
REMARK INTER + INTRA:          -7.530
REMARK INTER:                  -6.848
REMARK INTRA:                  -0.682
REMARK UNBOUND:                -0.576
REMARK  Name = /home/qwerty/github/datacon2025hack/step_04_hit_selection/docking/ligands/lig_496.pdb
REMARK  7 active torsions:
REMARK  status: ('A' for Active; 'I' for Inactive)
REMARK    1  A    between atoms: C1_1  and  C2_2
REMARK    2  A    between atoms: C2_2  and  C3_3
REMARK    3  A    between atoms: C2_2  and  C4_4
REMARK    4  A    between atoms: C6_8  and  C7_9
REMARK    5  A    between atoms: C7_9  and  N2_10
REMARK    6  A    between atoms: C13_17  and  C14_19
REMARK    7  A    between atoms: N5_22  and  C16_23
REMARK                            x       y       z     vdW  Elec       q    Type
REMARK                         _______ _______ _______ _____ _____    ______ ____
ROOT
ATOM      1  N2  UNL     1      19.454   1.642  26.518  0.00  0.00    -0.290 NA
ATOM      2  C8  UNL     1      19.859   0.397  25.831  0.00  0.00    +0.107 C 
ATOM      3  C9  UNL     1      19.519   0.677  24.360  0.00  0.00    +0.092 C 
ATOM      4  C10 UNL     1      19.971   2.107  24.250  0.00  0.00    +0.044 C 
ATOM      5  C11 UNL     1      19.096   2.552  25.409  0.00  0.00    +0.076 C 
ATOM      6  C12 UNL     1      17.720   2.085  24.909  0.00  0.00    +0.127 C 
ATOM      7  N3  UNL     1      18.065   0.818  24.264  0.00  0.00    -0.289 N 
ATOM      8  C13 UNL     1      17.160  -0.263  23.983  0.00  0.00    +0.286 C 
ATOM      9  O2  UNL     1      17.619  -1.424  23.810  0.00  0.00    -0.267 OA
ENDROOT
BRANCH   8  10
ATOM     10  C14 UNL     1      15.704  -0.053  23.870  0.00  0.00    +0.236 A 
ATOM     11  N4  UNL     1      14.846  -0.261  24.896  0.00  0.00    -0.211 NA
ATOM     12  C15 UNL     1      13.654   0.025  24.337  0.00  0.00    +0.219 A 
ATOM     13  N5  UNL     1      13.797   0.388  23.052  0.00  0.00    -0.254 N 
ATOM     14  C16 UNL     1      12.731   0.692  22.108  0.00  0.00    +0.174 C 
ATOM     15  N6  UNL     1      15.078   0.328  22.740  0.00  0.00    -0.145 NA
ENDBRANCH   8  10
BRANCH   1  16
ATOM     16  C7  UNL     1      20.426   2.170  27.503  0.00  0.00    +0.143 C 
BRANCH  16  21
ATOM     17  C4  UNL     1      21.423   0.611  29.334  0.00  0.00    +0.132 A 
ATOM     18  O1  UNL     1      21.035   0.219  30.523  0.00  0.00    -0.447 OA
ATOM     19  C5  UNL     1      19.871   0.780  30.760  0.00  0.00    +0.308 A 
ATOM     20  N1  UNL     1      19.457   1.561  29.741  0.00  0.00    -0.220 NA
ATOM     21  C6  UNL     1      20.442   1.449  28.829  0.00  0.00    +0.097 A 
BRANCH  17  23
ATOM     22  C1  UNL     1      22.909  -1.310  28.781  0.00  0.00    +0.015 C 
ATOM     23  C2  UNL     1      22.735   0.209  28.709  0.00  0.00    +0.051 C 
ATOM     24  C3  UNL     1      23.889   0.923  29.416  0.00  0.00    +0.015 C 
ENDBRANCH  17  23
ENDBRANCH  16  21
ENDBRANCH   1  16
TORSDOF 4
ENDMDL
MODEL 3
REMARK VINA RESULT:    -5.594     13.201     16.012
REMARK INTER + INTRA:          -7.478
REMARK INTER:                  -6.874
REMARK INTRA:                  -0.604
REMARK UNBOUND:                -0.576
REMARK  Name = /home/qwerty/github/datacon2025hack/step_04_hit_selection/docking/ligands/lig_496.pdb
REMARK  7 active torsions:
REMARK  status: ('A' for Active; 'I' for Inactive)
REMARK    1  A    between atoms: C1_1  and  C2_2
REMARK    2  A    between atoms: C2_2  and  C3_3
REMARK    3  A    between atoms: C2_2  and  C4_4
REMARK    4  A    between atoms: C6_8  and  C7_9
REMARK    5  A    between atoms: C7_9  and  N2_10
REMARK    6  A    between atoms: C13_17  and  C14_19
REMARK    7  A    between atoms: N5_22  and  C16_23
REMARK                            x       y       z     vdW  Elec       q    Type
REMARK                         _______ _______ _______ _____ _____    ______ ____
ROOT
ATOM      1  N2  UNL     1      15.042  12.935  36.598  0.00  0.00    -0.290 NA
ATOM      2  C8  UNL     1      16.285  13.733  36.634  0.00  0.00    +0.107 C 
ATOM      3  C9  UNL     1      17.092  13.186  35.447  0.00  0.00    +0.092 C 
ATOM      4  C10 UNL     1      15.996  13.032  34.429  0.00  0.00    +0.044 C 
ATOM      5  C11 UNL     1      15.162  12.155  35.348  0.00  0.00    +0.076 C 
ATOM      6  C12 UNL     1      16.168  11.034  35.646  0.00  0.00    +0.127 C 
ATOM      7  N3  UNL     1      17.418  11.790  35.745  0.00  0.00    -0.289 N 
ATOM      8  C13 UNL     1      18.618  11.358  36.408  0.00  0.00    +0.286 C 
ATOM      9  O2  UNL     1      19.464  12.217  36.777  0.00  0.00    -0.267 OA
ENDROOT
BRANCH   8  10
ATOM     10  C14 UNL     1      18.905   9.933  36.654  0.00  0.00    +0.236 A 
ATOM     11  N4  UNL     1      18.824   9.363  37.879  0.00  0.00    -0.211 NA
ATOM     12  C15 UNL     1      19.188   8.091  37.631  0.00  0.00    +0.219 A 
ATOM     13  N5  UNL     1      19.464   7.912  36.329  0.00  0.00    -0.254 N 
ATOM     14  C16 UNL     1      19.964   6.696  35.703  0.00  0.00    +0.174 C 
ATOM     15  N6  UNL     1      19.307   9.064  35.706  0.00  0.00    -0.145 NA
ENDBRANCH   8  10
BRANCH   1  16
ATOM     16  C7  UNL     1      13.787  13.704  36.765  0.00  0.00    +0.143 C 
BRANCH  16  21
ATOM     17  C4  UNL     1      11.797  12.226  35.969  0.00  0.00    +0.132 A 
ATOM     18  O1  UNL     1      10.972  12.261  34.952  0.00  0.00    -0.447 OA
ATOM     19  C5  UNL     1      11.297  13.301  34.218  0.00  0.00    +0.308 A 
ATOM     20  N1  UNL     1      12.341  13.987  34.728  0.00  0.00    -0.220 NA
ATOM     21  C6  UNL     1      12.665  13.299  35.840  0.00  0.00    +0.097 A 
BRANCH  17  23
ATOM     22  C1  UNL     1      11.559   9.796  36.461  0.00  0.00    +0.015 C 
ATOM     23  C2  UNL     1      11.730  11.193  37.065  0.00  0.00    +0.051 C 
ATOM     24  C3  UNL     1      10.577  11.518  38.017  0.00  0.00    +0.015 C 
ENDBRANCH  17  23
ENDBRANCH  16  21
ENDBRANCH   1  16
TORSDOF 4
ENDMDL
MODEL 4
REMARK VINA RESULT:    -5.586     15.412     17.754
REMARK INTER + INTRA:          -7.469
REMARK INTER:                  -6.752
REMARK INTRA:                  -0.717
REMARK UNBOUND:                -0.576
REMARK  Name = /home/qwerty/github/datacon2025hack/step_04_hit_selection/docking/ligands/lig_496.pdb
REMARK  7 active torsions:
REMARK  status: ('A' for Active; 'I' for Inactive)
REMARK    1  A    between atoms: C1_1  and  C2_2
REMARK    2  A    between atoms: C2_2  and  C3_3
REMARK    3  A    between atoms: C2_2  and  C4_4
REMARK    4  A    between atoms: C6_8  and  C7_9
REMARK    5  A    between atoms: C7_9  and  N2_10
REMARK    6  A    between atoms: C13_17  and  C14_19
REMARK    7  A    between atoms: N5_22  and  C16_23
REMARK                            x       y       z     vdW  Elec       q    Type
REMARK                         _______ _______ _______ _____ _____    ______ ____
ROOT
ATOM      1  N2  UNL     1      20.793   5.309  33.051  0.00  0.00    -0.290 NA
ATOM      2  C8  UNL     1      19.474   5.027  32.447  0.00  0.00    +0.107 C 
ATOM      3  C9  UNL     1      19.292   3.520  32.680  0.00  0.00    +0.092 C 
ATOM      4  C10 UNL     1      19.830   3.401  34.080  0.00  0.00    +0.044 C 
ATOM      5  C11 UNL     1      21.159   4.034  33.703  0.00  0.00    +0.076 C 
ATOM      6  C12 UNL     1      21.601   3.093  32.572  0.00  0.00    +0.127 C 
ATOM      7  N3  UNL     1      20.325   2.828  31.906  0.00  0.00    -0.289 N 
ATOM      8  C13 UNL     1      20.154   2.361  30.557  0.00  0.00    +0.286 C 
ATOM      9  O2  UNL     1      19.055   2.554  29.970  0.00  0.00    -0.267 OA
ENDROOT
BRANCH   8  10
ATOM     10  C14 UNL     1      21.223   1.644  29.838  0.00  0.00    +0.236 A 
ATOM     11  N4  UNL     1      22.146   2.268  29.070  0.00  0.00    -0.211 NA
ATOM     12  C15 UNL     1      22.881   1.239  28.607  0.00  0.00    +0.219 A 
ATOM     13  N5  UNL     1      22.424   0.068  29.078  0.00  0.00    -0.254 N 
ATOM     14  C16 UNL     1      22.912  -1.260  28.736  0.00  0.00    +0.174 C 
ATOM     15  N6  UNL     1      21.373   0.304  29.840  0.00  0.00    -0.145 NA
ENDBRANCH   8  10
BRANCH   1  16
ATOM     16  C7  UNL     1      20.856   6.516  33.906  0.00  0.00    +0.143 C 
BRANCH  16  21
ATOM     17  C4  UNL     1      23.382   6.652  34.521  0.00  0.00    +0.132 A 
ATOM     18  O1  UNL     1      24.057   6.691  35.644  0.00  0.00    -0.447 OA
ATOM     19  C5  UNL     1      23.187   6.639  36.627  0.00  0.00    +0.308 A 
ATOM     20  N1  UNL     1      21.914   6.568  36.186  0.00  0.00    -0.220 NA
ATOM     21  C6  UNL     1      22.037   6.570  34.845  0.00  0.00    +0.097 A 
BRANCH  17  23
ATOM     22  C1  UNL     1      25.151   5.696  33.051  0.00  0.00    +0.015 C 
ATOM     23  C2  UNL     1      24.023   6.726  33.159  0.00  0.00    +0.051 C 
ATOM     24  C3  UNL     1      24.551   8.140  32.907  0.00  0.00    +0.015 C 
ENDBRANCH  17  23
ENDBRANCH  16  21
ENDBRANCH   1  16
TORSDOF 4
ENDMDL
MODEL 5
REMARK VINA RESULT:    -5.569     10.897     13.080
REMARK INTER + INTRA:          -7.447
REMARK INTER:                  -6.758
REMARK INTRA:                  -0.688
REMARK UNBOUND:                -0.576
REMARK  Name = /home/qwerty/github/datacon2025hack/step_04_hit_selection/docking/ligands/lig_496.pdb
REMARK  7 active torsions:
REMARK  status: ('A' for Active; 'I' for Inactive)
REMARK    1  A    between atoms: C1_1  and  C2_2
REMARK    2  A    between atoms: C2_2  and  C3_3
REMARK    3  A    between atoms: C2_2  and  C4_4
REMARK    4  A    between atoms: C6_8  and  C7_9
REMARK    5  A    between atoms: C7_9  and  N2_10
REMARK    6  A    between atoms: C13_17  and  C14_19
REMARK    7  A    between atoms: N5_22  and  C16_23
REMARK                            x       y       z     vdW  Elec       q    Type
REMARK                         _______ _______ _______ _____ _____    ______ ____
ROOT
ATOM      1  N2  UNL     1      17.550   1.567  25.010  0.00  0.00    -0.290 NA
ATOM      2  C8  UNL     1      17.662   2.958  25.496  0.00  0.00    +0.107 C 
ATOM      3  C9  UNL     1      19.124   3.321  25.199  0.00  0.00    +0.092 C 
ATOM      4  C10 UNL     1      19.285   2.687  23.844  0.00  0.00    +0.044 C 
ATOM      5  C11 UNL     1      18.848   1.322  24.348  0.00  0.00    +0.076 C 
ATOM      6  C12 UNL     1      19.865   1.108  25.479  0.00  0.00    +0.127 C 
ATOM      7  N3  UNL     1      19.968   2.460  26.030  0.00  0.00    -0.289 N 
ATOM      8  C13 UNL     1      20.437   2.806  27.345  0.00  0.00    +0.286 C 
ATOM      9  O2  UNL     1      20.108   3.915  27.846  0.00  0.00    -0.267 OA
ENDROOT
BRANCH   8  10
ATOM     10  C14 UNL     1      21.309   1.908  28.123  0.00  0.00    +0.236 A 
ATOM     11  N4  UNL     1      20.836   1.006  29.015  0.00  0.00    -0.211 NA
ATOM     12  C15 UNL     1      21.966   0.448  29.488  0.00  0.00    +0.219 A 
ATOM     13  N5  UNL     1      23.051   0.983  28.906  0.00  0.00    -0.254 N 
ATOM     14  C16 UNL     1      24.443   0.688  29.217  0.00  0.00    +0.174 C 
ATOM     15  N6  UNL     1      22.656   1.913  28.058  0.00  0.00    -0.145 NA
ENDBRANCH   8  10
BRANCH   1  16
ATOM     16  C7  UNL     1      16.343   1.270  24.204  0.00  0.00    +0.143 C 
BRANCH  16  21
ATOM     17  C4  UNL     1      16.658  -1.210  23.476  0.00  0.00    +0.132 A 
ATOM     18  O1  UNL     1      16.743  -1.829  22.324  0.00  0.00    -0.447 OA
ATOM     19  C5  UNL     1      16.645  -0.919  21.381  0.00  0.00    +0.308 A 
ATOM     20  N1  UNL     1      16.488   0.325  21.879  0.00  0.00    -0.220 NA
ATOM     21  C6  UNL     1      16.502   0.142  23.214  0.00  0.00    +0.097 A 
BRANCH  17  23
ATOM     22  C1  UNL     1      17.786  -2.987  24.807  0.00  0.00    +0.015 C 
ATOM     23  C2  UNL     1      16.693  -1.915  24.808  0.00  0.00    +0.051 C 
ATOM     24  C3  UNL     1      15.324  -2.533  25.107  0.00  0.00    +0.015 C 
ENDBRANCH  17  23
ENDBRANCH  16  21
ENDBRANCH   1  16
TORSDOF 4
ENDMDL
MODEL 6
REMARK VINA RESULT:    -5.485     14.754     16.024
REMARK INTER + INTRA:          -7.343
REMARK INTER:                  -6.673
REMARK INTRA:                  -0.670
REMARK UNBOUND:                -0.576
REMARK  Name = /home/qwerty/github/datacon2025hack/step_04_hit_selection/docking/ligands/lig_496.pdb
REMARK  7 active torsions:
REMARK  status: ('A' for Active; 'I' for Inactive)
REMARK    1  A    between atoms: C1_1  and  C2_2
REMARK    2  A    between atoms: C2_2  and  C3_3
REMARK    3  A    between atoms: C2_2  and  C4_4
REMARK    4  A    between atoms: C6_8  and  C7_9
REMARK    5  A    between atoms: C7_9  and  N2_10
REMARK    6  A    between atoms: C13_17  and  C14_19
REMARK    7  A    between atoms: N5_22  and  C16_23
REMARK                            x       y       z     vdW  Elec       q    Type
REMARK                         _______ _______ _______ _____ _____    ______ ____
ROOT
ATOM      1  N2  UNL     1      20.685   3.280  31.341  0.00  0.00    -0.290 NA
ATOM      2  C8  UNL     1      22.051   3.202  31.902  0.00  0.00    +0.107 C 
ATOM      3  C9  UNL     1      21.809   3.163  33.418  0.00  0.00    +0.092 C 
ATOM      4  C10 UNL     1      20.619   2.244  33.474  0.00  0.00    +0.044 C 
ATOM      5  C11 UNL     1      19.812   3.110  32.521  0.00  0.00    +0.076 C 
ATOM      6  C12 UNL     1      19.849   4.450  33.269  0.00  0.00    +0.127 C 
ATOM      7  N3  UNL     1      21.212   4.444  33.801  0.00  0.00    -0.289 N 
ATOM      8  C13 UNL     1      21.960   5.595  34.227  0.00  0.00    +0.286 C 
ATOM      9  O2  UNL     1      23.219   5.530  34.277  0.00  0.00    -0.267 OA
ENDROOT
BRANCH   8  10
ATOM     10  C14 UNL     1      21.300   6.850  34.629  0.00  0.00    +0.236 A 
ATOM     11  N4  UNL     1      20.652   7.001  35.808  0.00  0.00    -0.211 NA
ATOM     12  C15 UNL     1      20.200   8.267  35.729  0.00  0.00    +0.219 A 
ATOM     13  N5  UNL     1      20.564   8.839  34.571  0.00  0.00    -0.254 N 
ATOM     14  C16 UNL     1      20.193  10.166  34.099  0.00  0.00    +0.174 C 
ATOM     15  N6  UNL     1      21.241   7.956  33.862  0.00  0.00    -0.145 NA
ENDBRANCH   8  10
BRANCH   1  16
ATOM     16  C7  UNL     1      20.416   2.378  30.198  0.00  0.00    +0.143 C 
BRANCH  16  21
ATOM     17  C4  UNL     1      22.422   1.844  28.627  0.00  0.00    +0.132 A 
ATOM     18  O1  UNL     1      22.886   2.362  27.516  0.00  0.00    -0.447 OA
ATOM     19  C5  UNL     1      22.110   3.374  27.200  0.00  0.00    +0.308 A 
ATOM     20  N1  UNL     1      21.110   3.554  28.087  0.00  0.00    -0.220 NA
ATOM     21  C6  UNL     1      21.311   2.584  29.000  0.00  0.00    +0.097 A 
BRANCH  17  23
ATOM     22  C1  UNL     1      24.549   0.695  29.224  0.00  0.00    +0.015 C 
ATOM     23  C2  UNL     1      23.021   0.636  29.300  0.00  0.00    +0.051 C 
ATOM     24  C3  UNL     1      22.493  -0.642  28.643  0.00  0.00    +0.015 C 
ENDBRANCH  17  23
ENDBRANCH  16  21
ENDBRANCH   1  16
TORSDOF 4
ENDMDL
MODEL 7
REMARK VINA RESULT:    -5.425     14.917     17.130
REMARK INTER + INTRA:          -7.270
REMARK INTER:                  -6.503
REMARK INTRA:                  -0.767
REMARK UNBOUND:                -0.576
REMARK  Name = /home/qwerty/github/datacon2025hack/step_04_hit_selection/docking/ligands/lig_496.pdb
REMARK  7 active torsions:
REMARK  status: ('A' for Active; 'I' for Inactive)
REMARK    1  A    between atoms: C1_1  and  C2_2
REMARK    2  A    between atoms: C2_2  and  C3_3
REMARK    3  A    between atoms: C2_2  and  C4_4
REMARK    4  A    between atoms: C6_8  and  C7_9
REMARK    5  A    between atoms: C7_9  and  N2_10
REMARK    6  A    between atoms: C13_17  and  C14_19
REMARK    7  A    between atoms: N5_22  and  C16_23
REMARK                            x       y       z     vdW  Elec       q    Type
REMARK                         _______ _______ _______ _____ _____    ______ ____
ROOT
ATOM      1  N2  UNL     1      21.813   8.033  35.932  0.00  0.00    -0.290 NA
ATOM      2  C8  UNL     1      21.249   7.954  37.296  0.00  0.00    +0.107 C 
ATOM      3  C9  UNL     1      19.766   7.643  37.050  0.00  0.00    +0.092 C 
ATOM      4  C10 UNL     1      19.885   6.650  35.926  0.00  0.00    +0.044 C 
ATOM      5  C11 UNL     1      20.693   7.608  35.066  0.00  0.00    +0.076 C 
ATOM      6  C12 UNL     1      19.730   8.803  35.006  0.00  0.00    +0.127 C 
ATOM      7  N3  UNL     1      19.184   8.799  36.364  0.00  0.00    -0.289 N 
ATOM      8  C13 UNL     1      18.558   9.909  37.029  0.00  0.00    +0.286 C 
ATOM      9  O2  UNL     1      18.499   9.922  38.288  0.00  0.00    -0.267 OA
ENDROOT
BRANCH   8  10
ATOM     10  C14 UNL     1      17.962  11.032  36.281  0.00  0.00    +0.236 A 
ATOM     11  N4  UNL     1      18.557  12.242  36.166  0.00  0.00    -0.211 NA
ATOM     12  C15 UNL     1      17.661  12.937  35.440  0.00  0.00    +0.219 A 
ATOM     13  N5  UNL     1      16.595  12.180  35.135  0.00  0.00    -0.254 N 
ATOM     14  C16 UNL     1      15.393  12.608  34.434  0.00  0.00    +0.174 C 
ATOM     15  N6  UNL     1      16.762  10.985  35.671  0.00  0.00    -0.145 NA
ENDBRANCH   8  10
BRANCH   1  16
ATOM     16  C7  UNL     1      23.095   7.320  35.731  0.00  0.00    +0.143 C 
BRANCH  16  21
ATOM     17  C4  UNL     1      23.647   7.552  33.197  0.00  0.00    +0.132 A 
ATOM     18  O1  UNL     1      23.776   6.710  32.201  0.00  0.00    -0.447 OA
ATOM     19  C5  UNL     1      23.555   5.505  32.674  0.00  0.00    +0.308 A 
ATOM     20  N1  UNL     1      23.278   5.511  33.994  0.00  0.00    -0.220 NA
ATOM     21  C6  UNL     1      23.330   6.815  34.328  0.00  0.00    +0.097 A 
BRANCH  17  23
ATOM     22  C1  UNL     1      22.660   9.681  32.364  0.00  0.00    +0.015 C 
ATOM     23  C2  UNL     1      23.858   9.039  33.068  0.00  0.00    +0.051 C 
ATOM     24  C3  UNL     1      25.153   9.316  32.301  0.00  0.00    +0.015 C 
ENDBRANCH  17  23
ENDBRANCH  16  21
ENDBRANCH   1  16
TORSDOF 4
ENDMDL
MODEL 8
REMARK VINA RESULT:    -5.412     14.926     16.659
REMARK INTER + INTRA:          -7.254
REMARK INTER:                  -6.623
REMARK INTRA:                  -0.631
REMARK UNBOUND:                -0.576
REMARK  Name = /home/qwerty/github/datacon2025hack/step_04_hit_selection/docking/ligands/lig_496.pdb
REMARK  7 active torsions:
REMARK  status: ('A' for Active; 'I' for Inactive)
REMARK    1  A    between atoms: C1_1  and  C2_2
REMARK    2  A    between atoms: C2_2  and  C3_3
REMARK    3  A    between atoms: C2_2  and  C4_4
REMARK    4  A    between atoms: C6_8  and  C7_9
REMARK    5  A    between atoms: C7_9  and  N2_10
REMARK    6  A    between atoms: C13_17  and  C14_19
REMARK    7  A    between atoms: N5_22  and  C16_23
REMARK                            x       y       z     vdW  Elec       q    Type
REMARK                         _______ _______ _______ _____ _____    ______ ____
ROOT
ATOM      1  N2  UNL     1      19.678  10.512  35.179  0.00  0.00    -0.290 NA
ATOM      2  C8  UNL     1      19.680  11.305  33.932  0.00  0.00    +0.107 C 
ATOM      3  C9  UNL     1      19.682  12.756  34.433  0.00  0.00    +0.092 C 
ATOM      4  C10 UNL     1      20.648  12.640  35.581  0.00  0.00    +0.044 C 
ATOM      5  C11 UNL     1      19.847  11.529  36.239  0.00  0.00    +0.076 C 
ATOM      6  C12 UNL     1      18.483  12.220  36.382  0.00  0.00    +0.127 C 
ATOM      7  N3  UNL     1      18.415  12.980  35.133  0.00  0.00    -0.289 N 
ATOM      8  C13 UNL     1      17.221  13.485  34.513  0.00  0.00    +0.286 C 
ATOM      9  O2  UNL     1      17.231  13.755  33.281  0.00  0.00    -0.267 OA
ENDROOT
BRANCH   8  10
ATOM     10  C14 UNL     1      15.982  13.718  35.277  0.00  0.00    +0.236 A 
ATOM     11  N4  UNL     1      15.785  14.810  36.052  0.00  0.00    -0.211 NA
ATOM     12  C15 UNL     1      14.558  14.586  36.561  0.00  0.00    +0.219 A 
ATOM     13  N5  UNL     1      14.052  13.427  36.109  0.00  0.00    -0.254 N 
ATOM     14  C16 UNL     1      12.789  12.816  36.499  0.00  0.00    +0.174 C 
ATOM     15  N6  UNL     1      14.942  12.862  35.315  0.00  0.00    -0.145 NA
ENDBRANCH   8  10
BRANCH   1  16
ATOM     16  C7  UNL     1      20.626   9.376  35.212  0.00  0.00    +0.143 C 
BRANCH  16  21
ATOM     17  C4  UNL     1      21.132   7.328  36.739  0.00  0.00    +0.132 A 
ATOM     18  O1  UNL     1      20.431   6.613  37.584  0.00  0.00    -0.447 OA
ATOM     19  C5  UNL     1      19.213   7.104  37.598  0.00  0.00    +0.308 A 
ATOM     20  N1  UNL     1      19.071   8.157  36.768  0.00  0.00    -0.220 NA
ATOM     21  C6  UNL     1      20.292   8.298  36.215  0.00  0.00    +0.097 A 
BRANCH  17  23
ATOM     22  C1  UNL     1      22.768   6.109  35.310  0.00  0.00    +0.015 C 
ATOM     23  C2  UNL     1      22.597   7.100  36.465  0.00  0.00    +0.051 C 
ATOM     24  C3  UNL     1      23.290   6.587  37.730  0.00  0.00    +0.015 C 
ENDBRANCH  17  23
ENDBRANCH  16  21
ENDBRANCH   1  16
TORSDOF 4
ENDMDL
MODEL 9
REMARK VINA RESULT:    -5.410     15.596     16.840
REMARK INTER + INTRA:          -7.251
REMARK INTER:                  -6.649
REMARK INTRA:                  -0.602
REMARK UNBOUND:                -0.576
REMARK  Name = /home/qwerty/github/datacon2025hack/step_04_hit_selection/docking/ligands/lig_496.pdb
REMARK  7 active torsions:
REMARK  status: ('A' for Active; 'I' for Inactive)
REMARK    1  A    between atoms: C1_1  and  C2_2
REMARK    2  A    between atoms: C2_2  and  C3_3
REMARK    3  A    between atoms: C2_2  and  C4_4
REMARK    4  A    between atoms: C6_8  and  C7_9
REMARK    5  A    between atoms: C7_9  and  N2_10
REMARK    6  A    between atoms: C13_17  and  C14_19
REMARK    7  A    between atoms: N5_22  and  C16_23
REMARK                            x       y       z     vdW  Elec       q    Type
REMARK                         _______ _______ _______ _____ _____    ______ ____
ROOT
ATOM      1  N2  UNL     1      20.010   8.577  34.550  0.00  0.00    -0.290 NA
ATOM      2  C8  UNL     1      20.978   9.465  35.228  0.00  0.00    +0.107 C 
ATOM      3  C9  UNL     1      20.293   9.780  36.566  0.00  0.00    +0.092 C 
ATOM      4  C10 UNL     1      19.728   8.427  36.901  0.00  0.00    +0.044 C 
ATOM      5  C11 UNL     1      18.980   8.331  35.582  0.00  0.00    +0.076 C 
ATOM      6  C12 UNL     1      18.136   9.612  35.649  0.00  0.00    +0.127 C 
ATOM      7  N3  UNL     1      19.079  10.543  36.269  0.00  0.00    -0.289 N 
ATOM      8  C13 UNL     1      19.014  11.978  36.211  0.00  0.00    +0.286 C 
ATOM      9  O2  UNL     1      20.059  12.653  36.417  0.00  0.00    -0.267 OA
ENDROOT
BRANCH   8  10
ATOM     10  C14 UNL     1      17.754  12.693  35.936  0.00  0.00    +0.236 A 
ATOM     11  N4  UNL     1      17.523  13.367  34.785  0.00  0.00    -0.211 NA
ATOM     12  C15 UNL     1      16.288  13.865  34.986  0.00  0.00    +0.219 A 
ATOM     13  N5  UNL     1      15.809  13.502  36.187  0.00  0.00    -0.254 N 
ATOM     14  C16 UNL     1      14.546  13.914  36.783  0.00  0.00    +0.174 C 
ATOM     15  N6  UNL     1      16.726  12.779  36.802  0.00  0.00    -0.145 NA
ENDBRANCH   8  10
BRANCH   1  16
ATOM     16  C7  UNL     1      20.590   7.374  33.911  0.00  0.00    +0.143 C 
BRANCH  16  21
ATOM     17  C4  UNL     1      23.188   7.446  33.755  0.00  0.00    +0.132 A 
ATOM     18  O1  UNL     1      24.168   6.940  34.463  0.00  0.00    -0.447 OA
ATOM     19  C5  UNL     1      23.630   6.255  35.446  0.00  0.00    +0.308 A 
ATOM     20  N1  UNL     1      22.282   6.289  35.421  0.00  0.00    -0.220 NA
ATOM     21  C6  UNL     1      21.998   7.042  34.341  0.00  0.00    +0.097 A 
BRANCH  17  23
ATOM     22  C1  UNL     1      23.292   7.505  31.267  0.00  0.00    +0.015 C 
ATOM     23  C2  UNL     1      23.395   8.331  32.553  0.00  0.00    +0.051 C 
ATOM     24  C3  UNL     1      24.756   9.025  32.645  0.00  0.00    +0.015 C 
ENDBRANCH  17  23
ENDBRANCH  16  21
ENDBRANCH   1  16
TORSDOF 4
ENDMDL
