REMARK  Name = /home/qwerty/github/datacon2025hack/step_04_hit_selection/docking/ligands/lig_627.pdb
REMARK  5 active torsions:
REMARK  status: ('A' for Active; 'I' for Inactive)
REMARK    1  A    between atoms: C1_1  and  C2_2
REMARK    2  A    between atoms: C7_7  and  C8_8
REMARK    3  A    between atoms: C9_9  and  N1_10
REMARK    4  A    between atoms: N1_10  and  C10_11
REMARK    5  A    between atoms: N2_14  and  C13_15
REMARK                            x       y       z     vdW  Elec       q    Type
REMARK                         _______ _______ _______ _____ _____    ______ ____
ROOT
ATOM      1  N1  UNL     1      -0.333  -0.544   1.022  0.00  0.00    -0.306 NA
ATOM      2  H10 UNL     1      -0.429  -0.835   2.023  0.00  0.00    +0.123 HD
ENDROOT
BRANCH   1  11
ATOM      3  C1  UNL     1      -6.397   1.668   0.434  0.00  0.00    +0.044 C 
ATOM      4  C2  UNL     1      -5.082   0.937   0.362  0.00  0.00    -0.046 A 
ATOM      5  C3  UNL     1      -4.730   0.053   1.395  0.00  0.00    +0.018 A 
ATOM      6  C4  UNL     1      -3.508  -0.623   1.367  0.00  0.00    +0.013 A 
ATOM      7  C5  UNL     1      -2.640  -0.473   0.274  0.00  0.00    -0.017 A 
ATOM      8  C6  UNL     1      -2.973   0.431  -0.746  0.00  0.00    +0.010 A 
ATOM      9  C7  UNL     1      -4.181   1.147  -0.709  0.00  0.00    -0.047 A 
ATOM     10  C8  UNL     1      -4.509   2.097  -1.831  0.00  0.00    +0.044 C 
ATOM     11  C9  UNL     1      -1.343  -1.255   0.211  0.00  0.00    +0.086 C 
ATOM     12  C19 UNL     1      -1.494  -2.750   0.649  0.00  0.00    +0.034 C 
ATOM     13  C20 UNL     1      -2.738  -3.081   1.495  0.00  0.00    +0.076 C 
ATOM     14  S1  UNL     1      -3.088  -1.756   2.691  0.00  0.00    -0.125 S 
ENDBRANCH   1  11
BRANCH   1  15
ATOM     15  C10 UNL     1       1.047  -0.766   0.541  0.00  0.00    +0.057 C 
ATOM     16  C11 UNL     1       2.050  -0.641   1.705  0.00  0.00    +0.037 C 
ATOM     17  C12 UNL     1       3.489  -0.814   1.211  0.00  0.00    +0.108 C 
ATOM     18  N2  UNL     1       3.765   0.105   0.098  0.00  0.00    -0.314 N 
ATOM     19  C17 UNL     1       2.828   0.120  -1.034  0.00  0.00    +0.108 C 
ATOM     20  C18 UNL     1       1.387   0.280  -0.537  0.00  0.00    +0.037 C 
BRANCH  18  21
ATOM     21  C13 UNL     1       5.060   0.731   0.001  0.00  0.00    +0.144 A 
ATOM     22  C14 UNL     1       5.739   0.829  -1.224  0.00  0.00    +0.047 A 
ATOM     23  C15 UNL     1       6.989   1.441  -1.265  0.00  0.00    +0.025 A 
ATOM     24  C16 UNL     1       7.541   1.939  -0.088  0.00  0.00    +0.135 A 
ATOM     25  N3  UNL     1       6.855   1.816   1.077  0.00  0.00    -0.156 NA
ATOM     26  N4  UNL     1       5.656   1.230   1.119  0.00  0.00    -0.134 NA
ENDBRANCH  18  21
ENDBRANCH   1  15
TORSDOF 3
