REMARK  Name = /home/qwerty/github/datacon2025hack/step_04_hit_selection/docking/ligands/lig_373.pdb
REMARK  7 active torsions:
REMARK  status: ('A' for Active; 'I' for Inactive)
REMARK    1  A    between atoms: C1_1  and  O1_2
REMARK    2  A    between atoms: O1_2  and  C2_3
REMARK    3  A    between atoms: C5_6  and  N1_7
REMARK    4  A    between atoms: C6_8  and  C7_10
REMARK    5  A    between atoms: N3_15  and  C10_16
REMARK    6  A    between atoms: C19_26  and  O4_27
REMARK    7  A    between atoms: O4_27  and  C20_28
REMARK                            x       y       z     vdW  Elec       q    Type
REMARK                         _______ _______ _______ _____ _____    ______ ____
ROOT
ATOM      1  C7  UNL     1       0.182  -1.619   0.225  0.00  0.00    +0.302 C 
ATOM      2  O3  UNL     1       0.136  -2.877   0.300  0.00  0.00    -0.265 OA
ATOM      3  N2  UNL     1       1.447  -0.974  -0.022  0.00  0.00    -0.291 N 
ATOM      4  C8  UNL     1       2.459  -1.684  -0.816  0.00  0.00    +0.127 C 
ATOM      5  C9  UNL     1       3.591  -0.750  -1.254  0.00  0.00    +0.124 C 
ATOM      6  N3  UNL     1       4.118   0.008  -0.110  0.00  0.00    -0.327 N 
ATOM      7  C16 UNL     1       3.209   0.447   0.961  0.00  0.00    +0.124 C 
ATOM      8  C17 UNL     1       1.741   0.355   0.532  0.00  0.00    +0.127 C 
ENDROOT
BRANCH   6   9
ATOM      9  C10 UNL     1       5.505   0.413  -0.081  0.00  0.00    +0.030 A 
ATOM     10  C11 UNL     1       6.203   0.489   1.139  0.00  0.00    +0.026 A 
ATOM     11  C12 UNL     1       7.544   0.884   1.166  0.00  0.00    +0.040 A 
ATOM     12  C13 UNL     1       8.204   1.209  -0.021  0.00  0.00    +0.124 A 
ATOM     13  F1  UNL     1       9.504   1.592   0.008  0.00  0.00    -0.205 F 
ATOM     14  C14 UNL     1       7.522   1.142  -1.238  0.00  0.00    +0.040 A 
ATOM     15  C15 UNL     1       6.181   0.747  -1.271  0.00  0.00    +0.026 A 
ENDBRANCH   6   9
BRANCH   1  17
ATOM     16  N1  UNL     1      -2.252  -1.485   0.887  0.00  0.00    -0.278 N 
ATOM     17  C6  UNL     1      -1.075  -0.852   0.357  0.00  0.00    +0.303 C 
ATOM     18  O2  UNL     1      -1.110   0.360   0.010  0.00  0.00    -0.265 OA
ATOM     19  H6  UNL     1      -2.129  -2.361   1.444  0.00  0.00    +0.155 HD
BRANCH  16  23
ATOM     20  C2  UNL     1      -6.186   0.132   0.689  0.00  0.00    +0.162 A 
ATOM     21  C3  UNL     1      -5.769  -0.623   1.801  0.00  0.00    +0.051 A 
ATOM     22  C4  UNL     1      -4.477  -1.147   1.855  0.00  0.00    +0.027 A 
ATOM     23  C5  UNL     1      -3.572  -0.916   0.813  0.00  0.00    +0.038 A 
ATOM     24  C18 UNL     1      -3.991  -0.184  -0.310  0.00  0.00    +0.072 A 
ATOM     25  C19 UNL     1      -5.294   0.349  -0.373  0.00  0.00    +0.163 A 
BRANCH  20  27
ATOM     26  C1  UNL     1      -8.482   0.539   1.599  0.00  0.00    +0.277 C 
ATOM     27  O1  UNL     1      -7.476   0.678   0.600  0.00  0.00    -0.491 OA
ENDBRANCH  20  27
BRANCH  25  28
ATOM     28  O4  UNL     1      -5.742   1.095  -1.475  0.00  0.00    -0.491 OA
ATOM     29  C20 UNL     1      -4.950   1.400  -2.619  0.00  0.00    +0.277 C 
ENDBRANCH  25  28
ENDBRANCH  16  23
ENDBRANCH   1  17
TORSDOF 5
