REMARK  Name = /home/qwerty/github/datacon2025hack/step_04_hit_selection/docking/ligands/lig_762.pdb
REMARK  5 active torsions:
REMARK  status: ('A' for Active; 'I' for Inactive)
REMARK    1  A    between atoms: C1_1  and  C2_2
REMARK    2  A    between atoms: C5_5  and  N1_6
REMARK    3  A    between atoms: N2_9  and  C7_10
REMARK    4  A    between atoms: N4_13  and  C9_14
REMARK    5  A    between atoms: C17_22  and  C18_23
REMARK                            x       y       z     vdW  Elec       q    Type
REMARK                         _______ _______ _______ _____ _____    ______ ____
ROOT
ATOM      1  N1  UNL     1      -1.793  -0.598   0.800  0.00  0.00    -0.269 N 
ATOM      2  C6  UNL     1      -0.598  -0.046   0.226  0.00  0.00    +0.308 C 
ATOM      3  O1  UNL     1      -0.668   0.938  -0.559  0.00  0.00    -0.252 OA
ATOM      4  N2  UNL     1       0.679  -0.577   0.610  0.00  0.00    -0.267 N 
ATOM      5  H6  UNL     1      -1.690  -1.198   1.649  0.00  0.00    +0.156 HD
ATOM      6  H7  UNL     1       0.709  -1.249   1.410  0.00  0.00    +0.156 HD
ENDROOT
BRANCH   1  11
ATOM      7  C1  UNL     1      -7.151   0.558  -0.990  0.00  0.00    +0.044 C 
ATOM      8  C2  UNL     1      -5.756   0.262  -0.504  0.00  0.00    -0.047 A 
ATOM      9  C3  UNL     1      -4.701   0.213  -1.429  0.00  0.00    +0.005 A 
ATOM     10  C4  UNL     1      -3.399  -0.065  -1.011  0.00  0.00    +0.023 A 
ATOM     11  C5  UNL     1      -3.123  -0.290   0.347  0.00  0.00    +0.035 A 
ATOM     12  C16 UNL     1      -4.176  -0.274   1.271  0.00  0.00    +0.027 A 
ATOM     13  C17 UNL     1      -5.493  -0.001   0.861  0.00  0.00    -0.046 A 
ATOM     14  C18 UNL     1      -6.594   0.026   1.889  0.00  0.00    +0.044 C 
ENDBRANCH   1  11
BRANCH   4  15
ATOM     15  C7  UNL     1       1.927  -0.228  -0.009  0.00  0.00    +0.073 A 
ATOM     16  C8  UNL     1       2.139   0.391  -1.226  0.00  0.00    +0.158 A 
ATOM     17  N3  UNL     1       3.466   0.456  -1.448  0.00  0.00    -0.173 NA
ATOM     18  N4  UNL     1       4.090  -0.100  -0.417  0.00  0.00    -0.238 N 
ATOM     19  C15 UNL     1       3.176  -0.539   0.476  0.00  0.00    +0.137 A 
BRANCH  18  20
ATOM     20  C9  UNL     1       5.525  -0.217  -0.326  0.00  0.00    +0.065 A 
ATOM     21  C10 UNL     1       6.326   0.039  -1.455  0.00  0.00    +0.028 A 
ATOM     22  C11 UNL     1       7.718  -0.068  -1.380  0.00  0.00    +0.002 A 
ATOM     23  C12 UNL     1       8.328  -0.429  -0.178  0.00  0.00    +0.000 A 
ATOM     24  C13 UNL     1       7.549  -0.680   0.953  0.00  0.00    +0.002 A 
ATOM     25  C14 UNL     1       6.156  -0.575   0.884  0.00  0.00    +0.028 A 
ENDBRANCH  18  20
ENDBRANCH   4  15
TORSDOF 3
