MODEL 1
REMARK VINA RESULT:    -7.003      0.000      0.000
REMARK INTER + INTRA:         -10.177
REMARK INTER:                  -9.050
REMARK INTRA:                  -1.127
REMARK UNBOUND:                -1.127
REMARK  Name = /home/qwerty/github/datacon2025hack/step_04_hit_selection/docking/ligands/lig_316.pdb
REMARK  8 active torsions:
REMARK  status: ('A' for Active; 'I' for Inactive)
REMARK    1  A    between atoms: C1_1  and  C2_2
REMARK    2  A    between atoms: C2_2  and  C3_3
REMARK    3  A    between atoms: C2_2  and  C4_4
REMARK    4  A    between atoms: C2_2  and  O1_5
REMARK    5  A    between atoms: O1_5  and  C5_6
REMARK    6  A    between atoms: C9_12  and  N2_13
REMARK    7  A    between atoms: C10_14  and  C11_16
REMARK    8  A    between atoms: N3_24  and  C18_25
REMARK                            x       y       z     vdW  Elec       q    Type
REMARK                         _______ _______ _______ _____ _____    ______ ____
ROOT
ATOM      1  N2  UNL     1      19.214   8.991  36.312  0.00  0.00    -0.307 N 
ATOM      2  C10 UNL     1      18.741  10.215  36.897  0.00  0.00    +0.245 C 
ATOM      3  O3  UNL     1      18.760  10.362  38.150  0.00  0.00    -0.270 OA
ATOM      4  H17 UNL     1      19.387   8.975  35.281  0.00  0.00    +0.149 HD
ENDROOT
BRANCH   2   5
ATOM      5  C11 UNL     1      18.200  11.291  36.039  0.00  0.00    +0.050 A 
ATOM      6  C12 UNL     1      19.071  12.259  35.491  0.00  0.00    +0.014 A 
ATOM      7  C13 UNL     1      18.583  13.273  34.643  0.00  0.00    +0.002 A 
ATOM      8  C14 UNL     1      17.219  13.342  34.326  0.00  0.00    +0.014 A 
ATOM      9  C15 UNL     1      16.370  12.383  34.871  0.00  0.00    +0.050 A 
ATOM     10  C16 UNL     1      16.836  11.384  35.707  0.00  0.00    +0.061 A 
ATOM     11  C17 UNL     1      15.661  10.617  36.142  0.00  0.00    +0.255 C 
ATOM     12  O4  UNL     1      15.663   9.690  36.994  0.00  0.00    -0.269 OA
ATOM     13  N3  UNL     1      14.474  11.126  35.520  0.00  0.00    -0.231 N 
ATOM     14  C24 UNL     1      14.926  12.241  34.751  0.00  0.00    +0.254 C 
ATOM     15  O5  UNL     1      14.170  12.999  34.086  0.00  0.00    -0.270 OA
BRANCH  13  16
ATOM     16  C18 UNL     1      13.078  10.789  35.824  0.00  0.00    +0.085 C 
ATOM     17  C19 UNL     1      12.712  11.228  37.252  0.00  0.00    +0.023 C 
ATOM     18  C20 UNL     1      11.218  10.990  37.551  0.00  0.00    +0.002 C 
ATOM     19  C21 UNL     1      10.621   9.788  36.790  0.00  0.00    +0.000 C 
ATOM     20  C22 UNL     1      11.680   8.723  36.487  0.00  0.00    +0.002 C 
ATOM     21  C23 UNL     1      12.811   9.281  35.598  0.00  0.00    +0.023 C 
ENDBRANCH  13  16
ENDBRANCH   2   5
BRANCH   1  28
ATOM     22  C5  UNL     1      22.832   6.482  35.608  0.00  0.00    +0.403 C 
ATOM     23  O2  UNL     1      23.665   6.677  36.534  0.00  0.00    -0.226 OA
ATOM     24  N1  UNL     1      21.446   6.825  35.808  0.00  0.00    -0.266 N 
ATOM     25  C6  UNL     1      20.482   6.660  34.709  0.00  0.00    +0.111 C 
ATOM     26  C7  UNL     1      19.109   6.170  35.205  0.00  0.00    +0.021 C 
ATOM     27  C8  UNL     1      18.770   6.577  36.650  0.00  0.00    +0.025 C 
ATOM     28  C9  UNL     1      19.552   7.812  37.120  0.00  0.00    +0.091 C 
ATOM     29  C25 UNL     1      21.060   7.507  37.057  0.00  0.00    +0.133 C 
BRANCH  22  30
ATOM     30  O1  UNL     1      23.246   5.932  34.382  0.00  0.00    -0.445 OA
BRANCH  30  32
ATOM     31  C1  UNL     1      23.222   6.235  32.011  0.00  0.00    +0.055 C 
ATOM     32  C2  UNL     1      23.922   6.623  33.322  0.00  0.00    +0.107 C 
ATOM     33  C3  UNL     1      25.398   6.188  33.244  0.00  0.00    +0.055 C 
ATOM     34  C4  UNL     1      23.813   8.147  33.513  0.00  0.00    +0.055 C 
ENDBRANCH  30  32
ENDBRANCH  22  30
ENDBRANCH   1  28
TORSDOF 5
ENDMDL
MODEL 2
REMARK VINA RESULT:    -6.985      5.404      9.140
REMARK INTER + INTRA:         -10.153
REMARK INTER:                  -8.803
REMARK INTRA:                  -1.350
REMARK UNBOUND:                -1.127
REMARK  Name = /home/qwerty/github/datacon2025hack/step_04_hit_selection/docking/ligands/lig_316.pdb
REMARK  8 active torsions:
REMARK  status: ('A' for Active; 'I' for Inactive)
REMARK    1  A    between atoms: C1_1  and  C2_2
REMARK    2  A    between atoms: C2_2  and  C3_3
REMARK    3  A    between atoms: C2_2  and  C4_4
REMARK    4  A    between atoms: C2_2  and  O1_5
REMARK    5  A    between atoms: O1_5  and  C5_6
REMARK    6  A    between atoms: C9_12  and  N2_13
REMARK    7  A    between atoms: C10_14  and  C11_16
REMARK    8  A    between atoms: N3_24  and  C18_25
REMARK                            x       y       z     vdW  Elec       q    Type
REMARK                         _______ _______ _______ _____ _____    ______ ____
ROOT
ATOM      1  N2  UNL     1      20.428   2.625  32.269  0.00  0.00    -0.307 N 
ATOM      2  C10 UNL     1      20.552   2.988  33.654  0.00  0.00    +0.245 C 
ATOM      3  O3  UNL     1      21.084   2.186  34.468  0.00  0.00    -0.270 OA
ATOM      4  H17 UNL     1      20.185   3.377  31.584  0.00  0.00    +0.149 HD
ENDROOT
BRANCH   2   5
ATOM      5  C11 UNL     1      20.028   4.284  34.134  0.00  0.00    +0.050 A 
ATOM      6  C12 UNL     1      18.886   4.318  34.965  0.00  0.00    +0.014 A 
ATOM      7  C13 UNL     1      18.390   5.540  35.462  0.00  0.00    +0.002 A 
ATOM      8  C14 UNL     1      19.021   6.750  35.140  0.00  0.00    +0.014 A 
ATOM      9  C15 UNL     1      20.145   6.705  34.321  0.00  0.00    +0.050 A 
ATOM     10  C16 UNL     1      20.641   5.512  33.824  0.00  0.00    +0.061 A 
ATOM     11  C17 UNL     1      21.770   5.858  32.950  0.00  0.00    +0.255 C 
ATOM     12  O4  UNL     1      22.416   5.050  32.231  0.00  0.00    -0.269 OA
ATOM     13  N3  UNL     1      21.994   7.273  32.959  0.00  0.00    -0.231 N 
ATOM     14  C24 UNL     1      20.960   7.792  33.796  0.00  0.00    +0.254 C 
ATOM     15  O5  UNL     1      20.776   9.017  34.023  0.00  0.00    -0.270 OA
BRANCH  13  16
ATOM     16  C18 UNL     1      22.877   8.055  32.085  0.00  0.00    +0.085 C 
ATOM     17  C19 UNL     1      23.850   8.907  32.918  0.00  0.00    +0.023 C 
ATOM     18  C20 UNL     1      24.864   9.646  32.020  0.00  0.00    +0.002 C 
ATOM     19  C21 UNL     1      24.307  10.005  30.627  0.00  0.00    +0.000 C 
ATOM     20  C22 UNL     1      22.788  10.202  30.655  0.00  0.00    +0.002 C 
ATOM     21  C23 UNL     1      22.055   8.919  31.097  0.00  0.00    +0.023 C 
ENDBRANCH  13  16
ENDBRANCH   2   5
BRANCH   1  28
ATOM     22  C5  UNL     1      21.858   1.762  28.135  0.00  0.00    +0.403 C 
ATOM     23  O2  UNL     1      23.072   1.425  28.172  0.00  0.00    -0.226 OA
ATOM     24  N1  UNL     1      21.056   1.680  29.329  0.00  0.00    -0.266 N 
ATOM     25  C6  UNL     1      19.655   2.133  29.307  0.00  0.00    +0.111 C 
ATOM     26  C7  UNL     1      18.738   1.241  30.164  0.00  0.00    +0.021 C 
ATOM     27  C8  UNL     1      19.445   0.547  31.343  0.00  0.00    +0.025 C 
ATOM     28  C9  UNL     1      20.725   1.272  31.780  0.00  0.00    +0.091 C 
ATOM     29  C25 UNL     1      21.710   1.311  30.597  0.00  0.00    +0.133 C 
BRANCH  22  30
ATOM     30  O1  UNL     1      21.282   2.217  26.936  0.00  0.00    -0.445 OA
BRANCH  30  32
ATOM     31  C1  UNL     1      20.251   3.793  25.463  0.00  0.00    +0.055 C 
ATOM     32  C2  UNL     1      21.490   3.497  26.322  0.00  0.00    +0.107 C 
ATOM     33  C3  UNL     1      22.731   3.467  25.408  0.00  0.00    +0.055 C 
ATOM     34  C4  UNL     1      21.629   4.596  27.392  0.00  0.00    +0.055 C 
ENDBRANCH  30  32
ENDBRANCH  22  30
ENDBRANCH   1  28
TORSDOF 5
ENDMDL
MODEL 3
REMARK VINA RESULT:    -6.983      9.694     13.126
REMARK INTER + INTRA:         -10.151
REMARK INTER:                  -8.990
REMARK INTRA:                  -1.161
REMARK UNBOUND:                -1.127
REMARK  Name = /home/qwerty/github/datacon2025hack/step_04_hit_selection/docking/ligands/lig_316.pdb
REMARK  8 active torsions:
REMARK  status: ('A' for Active; 'I' for Inactive)
REMARK    1  A    between atoms: C1_1  and  C2_2
REMARK    2  A    between atoms: C2_2  and  C3_3
REMARK    3  A    between atoms: C2_2  and  C4_4
REMARK    4  A    between atoms: C2_2  and  O1_5
REMARK    5  A    between atoms: O1_5  and  C5_6
REMARK    6  A    between atoms: C9_12  and  N2_13
REMARK    7  A    between atoms: C10_14  and  C11_16
REMARK    8  A    between atoms: N3_24  and  C18_25
REMARK                            x       y       z     vdW  Elec       q    Type
REMARK                         _______ _______ _______ _____ _____    ______ ____
ROOT
ATOM      1  N2  UNL     1       9.650  12.249  29.037  0.00  0.00    -0.307 N 
ATOM      2  C10 UNL     1       8.366  11.704  29.383  0.00  0.00    +0.245 C 
ATOM      3  O3  UNL     1       7.451  12.466  29.796  0.00  0.00    -0.270 OA
ATOM      4  H17 UNL     1      10.313  11.643  28.502  0.00  0.00    +0.149 HD
ENDROOT
BRANCH   2   5
ATOM      5  C11 UNL     1       8.125  10.249  29.287  0.00  0.00    +0.050 A 
ATOM      6  C12 UNL     1       7.967   9.482  30.464  0.00  0.00    +0.014 A 
ATOM      7  C13 UNL     1       7.703   8.100  30.396  0.00  0.00    +0.002 A 
ATOM      8  C14 UNL     1       7.590   7.455  29.156  0.00  0.00    +0.014 A 
ATOM      9  C15 UNL     1       7.747   8.220  28.003  0.00  0.00    +0.050 A 
ATOM     10  C16 UNL     1       8.010   9.577  28.056  0.00  0.00    +0.061 A 
ATOM     11  C17 UNL     1       8.186  10.026  26.668  0.00  0.00    +0.255 C 
ATOM     12  O4  UNL     1       8.543  11.179  26.309  0.00  0.00    -0.269 OA
ATOM     13  N3  UNL     1       7.975   8.937  25.761  0.00  0.00    -0.231 N 
ATOM     14  C24 UNL     1       7.728   7.813  26.605  0.00  0.00    +0.254 C 
ATOM     15  O5  UNL     1       7.543   6.638  26.189  0.00  0.00    -0.270 OA
BRANCH  13  16
ATOM     16  C18 UNL     1       8.245   8.897  24.318  0.00  0.00    +0.085 C 
ATOM     17  C19 UNL     1       9.754   9.021  24.044  0.00  0.00    +0.023 C 
ATOM     18  C20 UNL     1      10.070   8.864  22.543  0.00  0.00    +0.002 C 
ATOM     19  C21 UNL     1       8.936   9.356  21.619  0.00  0.00    +0.000 C 
ATOM     20  C22 UNL     1       8.110  10.467  22.274  0.00  0.00    +0.002 C 
ATOM     21  C23 UNL     1       7.432   9.984  23.572  0.00  0.00    +0.023 C 
ENDBRANCH  13  16
ENDBRANCH   2   5
BRANCH   1  28
ATOM     22  C5  UNL     1      13.230  14.257  27.295  0.00  0.00    +0.403 C 
ATOM     23  O2  UNL     1      12.860  15.102  26.435  0.00  0.00    -0.226 OA
ATOM     24  N1  UNL     1      12.294  13.791  28.287  0.00  0.00    -0.266 N 
ATOM     25  C6  UNL     1      12.701  12.757  29.253  0.00  0.00    +0.111 C 
ATOM     26  C7  UNL     1      12.106  12.998  30.652  0.00  0.00    +0.021 C 
ATOM     27  C8  UNL     1      10.768  13.759  30.654  0.00  0.00    +0.025 C 
ATOM     28  C9  UNL     1      10.015  13.643  29.320  0.00  0.00    +0.091 C 
ATOM     29  C25 UNL     1      10.890  14.230  28.197  0.00  0.00    +0.133 C 
BRANCH  22  30
ATOM     30  O1  UNL     1      14.548  13.769  27.292  0.00  0.00    -0.445 OA
BRANCH  30  32
ATOM     31  C1  UNL     1      16.931  13.599  27.373  0.00  0.00    +0.055 C 
ATOM     32  C2  UNL     1      15.719  14.471  27.732  0.00  0.00    +0.107 C 
ATOM     33  C3  UNL     1      15.690  14.675  29.259  0.00  0.00    +0.055 C 
ATOM     34  C4  UNL     1      15.845  15.823  27.006  0.00  0.00    +0.055 C 
ENDBRANCH  30  32
ENDBRANCH  22  30
ENDBRANCH   1  28
TORSDOF 5
ENDMDL
MODEL 4
REMARK VINA RESULT:    -6.967      4.582      8.078
REMARK INTER + INTRA:         -10.130
REMARK INTER:                  -8.358
REMARK INTRA:                  -1.772
REMARK UNBOUND:                -1.127
REMARK  Name = /home/qwerty/github/datacon2025hack/step_04_hit_selection/docking/ligands/lig_316.pdb
REMARK  8 active torsions:
REMARK  status: ('A' for Active; 'I' for Inactive)
REMARK    1  A    between atoms: C1_1  and  C2_2
REMARK    2  A    between atoms: C2_2  and  C3_3
REMARK    3  A    between atoms: C2_2  and  C4_4
REMARK    4  A    between atoms: C2_2  and  O1_5
REMARK    5  A    between atoms: O1_5  and  C5_6
REMARK    6  A    between atoms: C9_12  and  N2_13
REMARK    7  A    between atoms: C10_14  and  C11_16
REMARK    8  A    between atoms: N3_24  and  C18_25
REMARK                            x       y       z     vdW  Elec       q    Type
REMARK                         _______ _______ _______ _____ _____    ______ ____
ROOT
ATOM      1  N2  UNL     1      17.628   3.750  34.608  0.00  0.00    -0.307 N 
ATOM      2  C10 UNL     1      17.974   4.006  35.979  0.00  0.00    +0.245 C 
ATOM      3  O3  UNL     1      18.043   3.051  36.799  0.00  0.00    -0.270 OA
ATOM      4  H17 UNL     1      17.786   4.513  33.911  0.00  0.00    +0.149 HD
ENDROOT
BRANCH   2   5
ATOM      5  C11 UNL     1      18.219   5.390  36.439  0.00  0.00    +0.050 A 
ATOM      6  C12 UNL     1      17.286   6.024  37.290  0.00  0.00    +0.014 A 
ATOM      7  C13 UNL     1      17.515   7.330  37.768  0.00  0.00    +0.002 A 
ATOM      8  C14 UNL     1      18.677   8.028  37.408  0.00  0.00    +0.014 A 
ATOM      9  C15 UNL     1      19.589   7.393  36.570  0.00  0.00    +0.050 A 
ATOM     10  C16 UNL     1      19.375   6.113  36.091  0.00  0.00    +0.061 A 
ATOM     11  C17 UNL     1      20.494   5.808  35.189  0.00  0.00    +0.255 C 
ATOM     12  O4  UNL     1      20.603   4.775  34.477  0.00  0.00    -0.269 OA
ATOM     13  N3  UNL     1      21.425   6.898  35.163  0.00  0.00    -0.231 N 
ATOM     14  C24 UNL     1      20.837   7.888  36.006  0.00  0.00    +0.254 C 
ATOM     15  O5  UNL     1      21.327   9.031  36.208  0.00  0.00    -0.270 OA
BRANCH  13  16
ATOM     16  C18 UNL     1      22.562   7.093  34.256  0.00  0.00    +0.085 C 
ATOM     17  C19 UNL     1      22.173   6.735  32.811  0.00  0.00    +0.023 C 
ATOM     18  C20 UNL     1      23.317   7.044  31.824  0.00  0.00    +0.002 C 
ATOM     19  C21 UNL     1      24.722   6.906  32.446  0.00  0.00    +0.000 C 
ATOM     20  C22 UNL     1      24.742   5.882  33.587  0.00  0.00    +0.002 C 
ATOM     21  C23 UNL     1      23.798   6.291  34.736  0.00  0.00    +0.023 C 
ENDBRANCH  13  16
ENDBRANCH   2   5
BRANCH   1  28
ATOM     22  C5  UNL     1      19.944   1.156  31.817  0.00  0.00    +0.403 C 
ATOM     23  O2  UNL     1      20.401   0.164  32.448  0.00  0.00    -0.226 OA
ATOM     24  N1  UNL     1      18.837   1.900  32.362  0.00  0.00    -0.266 N 
ATOM     25  C6  UNL     1      18.341   3.097  31.662  0.00  0.00    +0.111 C 
ATOM     26  C7  UNL     1      16.808   3.224  31.736  0.00  0.00    +0.021 C 
ATOM     27  C8  UNL     1      16.174   2.577  32.980  0.00  0.00    +0.025 C 
ATOM     28  C9  UNL     1      17.161   2.436  34.147  0.00  0.00    +0.091 C 
ATOM     29  C25 UNL     1      18.340   1.550  33.704  0.00  0.00    +0.133 C 
BRANCH  22  30
ATOM     30  O1  UNL     1      20.508   1.540  30.588  0.00  0.00    -0.445 OA
BRANCH  30  32
ATOM     31  C1  UNL     1      21.431   3.399  29.403  0.00  0.00    +0.055 C 
ATOM     32  C2  UNL     1      21.729   2.270  30.401  0.00  0.00    +0.107 C 
ATOM     33  C3  UNL     1      22.822   1.360  29.810  0.00  0.00    +0.055 C 
ATOM     34  C4  UNL     1      22.198   2.892  31.730  0.00  0.00    +0.055 C 
ENDBRANCH  30  32
ENDBRANCH  22  30
ENDBRANCH   1  28
TORSDOF 5
ENDMDL
MODEL 5
REMARK VINA RESULT:    -6.919     12.682     14.624
REMARK INTER + INTRA:         -10.069
REMARK INTER:                  -8.578
REMARK INTRA:                  -1.490
REMARK UNBOUND:                -1.127
REMARK  Name = /home/qwerty/github/datacon2025hack/step_04_hit_selection/docking/ligands/lig_316.pdb
REMARK  8 active torsions:
REMARK  status: ('A' for Active; 'I' for Inactive)
REMARK    1  A    between atoms: C1_1  and  C2_2
REMARK    2  A    between atoms: C2_2  and  C3_3
REMARK    3  A    between atoms: C2_2  and  C4_4
REMARK    4  A    between atoms: C2_2  and  O1_5
REMARK    5  A    between atoms: O1_5  and  C5_6
REMARK    6  A    between atoms: C9_12  and  N2_13
REMARK    7  A    between atoms: C10_14  and  C11_16
REMARK    8  A    between atoms: N3_24  and  C18_25
REMARK                            x       y       z     vdW  Elec       q    Type
REMARK                         _______ _______ _______ _____ _____    ______ ____
ROOT
ATOM      1  N2  UNL     1       8.866   8.300  24.827  0.00  0.00    -0.307 N 
ATOM      2  C10 UNL     1       7.962   9.343  25.224  0.00  0.00    +0.245 C 
ATOM      3  O3  UNL     1       7.204   9.877  24.369  0.00  0.00    -0.270 OA
ATOM      4  H17 UNL     1       9.322   7.733  25.578  0.00  0.00    +0.149 HD
ENDROOT
BRANCH   2   5
ATOM      5  C11 UNL     1       7.938   9.816  26.624  0.00  0.00    +0.050 A 
ATOM      6  C12 UNL     1       8.247  11.163  26.918  0.00  0.00    +0.014 A 
ATOM      7  C13 UNL     1       8.199  11.644  28.242  0.00  0.00    +0.002 A 
ATOM      8  C14 UNL     1       7.841  10.792  29.297  0.00  0.00    +0.014 A 
ATOM      9  C15 UNL     1       7.539   9.467  28.996  0.00  0.00    +0.050 A 
ATOM     10  C16 UNL     1       7.585   8.982  27.702  0.00  0.00    +0.061 A 
ATOM     11  C17 UNL     1       7.284   7.546  27.779  0.00  0.00    +0.255 C 
ATOM     12  O4  UNL     1       7.334   6.732  26.819  0.00  0.00    -0.269 OA
ATOM     13  N3  UNL     1       6.999   7.168  29.132  0.00  0.00    -0.231 N 
ATOM     14  C24 UNL     1       7.186   8.367  29.884  0.00  0.00    +0.254 C 
ATOM     15  O5  UNL     1       7.080   8.445  31.136  0.00  0.00    -0.270 OA
BRANCH  13  16
ATOM     16  C18 UNL     1       6.849   5.815  29.680  0.00  0.00    +0.085 C 
ATOM     17  C19 UNL     1       8.190   5.062  29.645  0.00  0.00    +0.023 C 
ATOM     18  C20 UNL     1       8.081   3.681  30.323  0.00  0.00    +0.002 C 
ATOM     19  C21 UNL     1       6.681   3.045  30.204  0.00  0.00    +0.000 C 
ATOM     20  C22 UNL     1       5.949   3.511  28.941  0.00  0.00    +0.002 C 
ATOM     21  C23 UNL     1       5.733   5.038  28.938  0.00  0.00    +0.023 C 
ENDBRANCH  13  16
ENDBRANCH   2   5
BRANCH   1  28
ATOM     22  C5  UNL     1       8.582   4.135  23.262  0.00  0.00    +0.403 C 
ATOM     23  O2  UNL     1       7.542   4.020  22.558  0.00  0.00    -0.226 OA
ATOM     24  N1  UNL     1       9.127   5.442  23.526  0.00  0.00    -0.266 N 
ATOM     25  C6  UNL     1      10.303   5.586  24.400  0.00  0.00    +0.111 C 
ATOM     26  C7  UNL     1      11.264   6.685  23.911  0.00  0.00    +0.021 C 
ATOM     27  C8  UNL     1      10.589   7.814  23.112  0.00  0.00    +0.025 C 
ATOM     28  C9  UNL     1       9.090   7.946  23.419  0.00  0.00    +0.091 C 
ATOM     29  C25 UNL     1       8.385   6.626  23.057  0.00  0.00    +0.133 C 
BRANCH  22  30
ATOM     30  O1  UNL     1       9.211   2.994  23.792  0.00  0.00    -0.445 OA
BRANCH  30  32
ATOM     31  C1  UNL     1      11.459   2.200  23.969  0.00  0.00    +0.055 C 
ATOM     32  C2  UNL     1      10.175   2.166  23.126  0.00  0.00    +0.107 C 
ATOM     33  C3  UNL     1      10.488   2.716  21.722  0.00  0.00    +0.055 C 
ATOM     34  C4  UNL     1       9.673   0.712  23.042  0.00  0.00    +0.055 C 
ENDBRANCH  30  32
ENDBRANCH  22  30
ENDBRANCH   1  28
TORSDOF 5
ENDMDL
MODEL 6
REMARK VINA RESULT:    -6.824     11.580     14.540
REMARK INTER + INTRA:          -9.946
REMARK INTER:                  -8.344
REMARK INTRA:                  -1.601
REMARK UNBOUND:                -1.127
REMARK  Name = /home/qwerty/github/datacon2025hack/step_04_hit_selection/docking/ligands/lig_316.pdb
REMARK  8 active torsions:
REMARK  status: ('A' for Active; 'I' for Inactive)
REMARK    1  A    between atoms: C1_1  and  C2_2
REMARK    2  A    between atoms: C2_2  and  C3_3
REMARK    3  A    between atoms: C2_2  and  C4_4
REMARK    4  A    between atoms: C2_2  and  O1_5
REMARK    5  A    between atoms: O1_5  and  C5_6
REMARK    6  A    between atoms: C9_12  and  N2_13
REMARK    7  A    between atoms: C10_14  and  C11_16
REMARK    8  A    between atoms: N3_24  and  C18_25
REMARK                            x       y       z     vdW  Elec       q    Type
REMARK                         _______ _______ _______ _____ _____    ______ ____
ROOT
ATOM      1  N2  UNL     1      18.675   4.473  23.840  0.00  0.00    -0.307 N 
ATOM      2  C10 UNL     1      18.857   4.264  22.430  0.00  0.00    +0.245 C 
ATOM      3  O3  UNL     1      20.009   4.357  21.925  0.00  0.00    -0.270 OA
ATOM      4  H17 UNL     1      17.765   4.184  24.266  0.00  0.00    +0.149 HD
ENDROOT
BRANCH   2   5
ATOM      5  C11 UNL     1      17.695   3.974  21.564  0.00  0.00    +0.050 A 
ATOM      6  C12 UNL     1      17.273   4.927  20.610  0.00  0.00    +0.014 A 
ATOM      7  C13 UNL     1      16.189   4.657  19.751  0.00  0.00    +0.002 A 
ATOM      8  C14 UNL     1      15.506   3.435  19.826  0.00  0.00    +0.014 A 
ATOM      9  C15 UNL     1      15.931   2.504  20.769  0.00  0.00    +0.050 A 
ATOM     10  C16 UNL     1      16.991   2.757  21.620  0.00  0.00    +0.061 A 
ATOM     11  C17 UNL     1      17.099   1.596  22.515  0.00  0.00    +0.255 C 
ATOM     12  O4  UNL     1      17.880   1.497  23.498  0.00  0.00    -0.269 OA
ATOM     13  N3  UNL     1      16.125   0.605  22.166  0.00  0.00    -0.231 N 
ATOM     14  C24 UNL     1      15.387   1.192  21.095  0.00  0.00    +0.254 C 
ATOM     15  O5  UNL     1      14.396   0.653  20.534  0.00  0.00    -0.270 OA
BRANCH  13  16
ATOM     16  C18 UNL     1      15.756  -0.603  22.914  0.00  0.00    +0.085 C 
ATOM     17  C19 UNL     1      15.268  -0.239  24.327  0.00  0.00    +0.023 C 
ATOM     18  C20 UNL     1      14.766  -1.483  25.089  0.00  0.00    +0.002 C 
ATOM     19  C21 UNL     1      15.486  -2.786  24.686  0.00  0.00    +0.000 C 
ATOM     20  C22 UNL     1      16.915  -2.520  24.199  0.00  0.00    +0.002 C 
ATOM     21  C23 UNL     1      16.932  -1.611  22.953  0.00  0.00    +0.023 C 
ENDBRANCH  13  16
ENDBRANCH   2   5
BRANCH   1  28
ATOM     22  C5  UNL     1      20.585   2.053  27.061  0.00  0.00    +0.403 C 
ATOM     23  O2  UNL     1      21.757   1.741  26.714  0.00  0.00    -0.226 OA
ATOM     24  N1  UNL     1      19.919   3.158  26.419  0.00  0.00    -0.266 N 
ATOM     25  C6  UNL     1      18.529   3.484  26.775  0.00  0.00    +0.111 C 
ATOM     26  C7  UNL     1      18.273   5.003  26.799  0.00  0.00    +0.021 C 
ATOM     27  C8  UNL     1      19.180   5.817  25.860  0.00  0.00    +0.025 C 
ATOM     28  C9  UNL     1      19.748   4.979  24.706  0.00  0.00    +0.091 C 
ATOM     29  C25 UNL     1      20.586   3.825  25.288  0.00  0.00    +0.133 C 
BRANCH  22  30
ATOM     30  O1  UNL     1      19.926   1.329  28.069  0.00  0.00    -0.445 OA
BRANCH  30  32
ATOM     31  C1  UNL     1      18.846   1.116  30.191  0.00  0.00    +0.055 C 
ATOM     32  C2  UNL     1      20.175   1.410  29.480  0.00  0.00    +0.107 C 
ATOM     33  C3  UNL     1      20.643   2.826  29.869  0.00  0.00    +0.055 C 
ATOM     34  C4  UNL     1      21.213   0.357  29.909  0.00  0.00    +0.055 C 
ENDBRANCH  30  32
ENDBRANCH  22  30
ENDBRANCH   1  28
TORSDOF 5
ENDMDL
MODEL 7
REMARK VINA RESULT:    -6.814     11.940     15.487
REMARK INTER + INTRA:          -9.933
REMARK INTER:                  -8.582
REMARK INTRA:                  -1.351
REMARK UNBOUND:                -1.127
REMARK  Name = /home/qwerty/github/datacon2025hack/step_04_hit_selection/docking/ligands/lig_316.pdb
REMARK  8 active torsions:
REMARK  status: ('A' for Active; 'I' for Inactive)
REMARK    1  A    between atoms: C1_1  and  C2_2
REMARK    2  A    between atoms: C2_2  and  C3_3
REMARK    3  A    between atoms: C2_2  and  C4_4
REMARK    4  A    between atoms: C2_2  and  O1_5
REMARK    5  A    between atoms: O1_5  and  C5_6
REMARK    6  A    between atoms: C9_12  and  N2_13
REMARK    7  A    between atoms: C10_14  and  C11_16
REMARK    8  A    between atoms: N3_24  and  C18_25
REMARK                            x       y       z     vdW  Elec       q    Type
REMARK                         _______ _______ _______ _____ _____    ______ ____
ROOT
ATOM      1  N2  UNL     1      16.897   3.060  21.534  0.00  0.00    -0.307 N 
ATOM      2  C10 UNL     1      17.291   4.423  21.756  0.00  0.00    +0.245 C 
ATOM      3  O3  UNL     1      16.415   5.327  21.825  0.00  0.00    -0.270 OA
ATOM      4  H17 UNL     1      17.609   2.310  21.694  0.00  0.00    +0.149 HD
ENDROOT
BRANCH   2   5
ATOM      5  C11 UNL     1      18.722   4.775  21.872  0.00  0.00    +0.050 A 
ATOM      6  C12 UNL     1      19.373   5.435  20.805  0.00  0.00    +0.014 A 
ATOM      7  C13 UNL     1      20.728   5.810  20.907  0.00  0.00    +0.002 A 
ATOM      8  C14 UNL     1      21.458   5.537  22.072  0.00  0.00    +0.014 A 
ATOM      9  C15 UNL     1      20.807   4.887  23.116  0.00  0.00    +0.050 A 
ATOM     10  C16 UNL     1      19.479   4.510  23.028  0.00  0.00    +0.061 A 
ATOM     11  C17 UNL     1      19.161   3.793  24.270  0.00  0.00    +0.255 C 
ATOM     12  O4  UNL     1      18.077   3.203  24.522  0.00  0.00    -0.269 OA
ATOM     13  N3  UNL     1      20.297   3.781  25.144  0.00  0.00    -0.231 N 
ATOM     14  C24 UNL     1      21.323   4.443  24.404  0.00  0.00    +0.254 C 
ATOM     15  O5  UNL     1      22.506   4.595  24.808  0.00  0.00    -0.270 OA
BRANCH  13  16
ATOM     16  C18 UNL     1      20.478   3.012  26.382  0.00  0.00    +0.085 C 
ATOM     17  C19 UNL     1      20.703   1.524  26.068  0.00  0.00    +0.023 C 
ATOM     18  C20 UNL     1      21.012   0.717  27.347  0.00  0.00    +0.002 C 
ATOM     19  C21 UNL     1      20.337   1.286  28.612  0.00  0.00    +0.000 C 
ATOM     20  C22 UNL     1      19.036   2.024  28.281  0.00  0.00    +0.002 C 
ATOM     21  C23 UNL     1      19.284   3.225  27.345  0.00  0.00    +0.023 C 
ENDBRANCH  13  16
ENDBRANCH   2   5
BRANCH   1  28
ATOM     22  C5  UNL     1      14.712  -0.309  23.472  0.00  0.00    +0.403 C 
ATOM     23  O2  UNL     1      13.818   0.152  24.233  0.00  0.00    -0.226 OA
ATOM     24  N1  UNL     1      15.261   0.519  22.429  0.00  0.00    -0.266 N 
ATOM     25  C6  UNL     1      16.350   0.008  21.581  0.00  0.00    +0.111 C 
ATOM     26  C7  UNL     1      16.214   0.466  20.117  0.00  0.00    +0.021 C 
ATOM     27  C8  UNL     1      15.479   1.806  19.933  0.00  0.00    +0.025 C 
ATOM     28  C9  UNL     1      15.519   2.684  21.192  0.00  0.00    +0.091 C 
ATOM     29  C25 UNL     1      14.842   1.930  22.352  0.00  0.00    +0.133 C 
BRANCH  22  30
ATOM     30  O1  UNL     1      15.176  -1.626  23.636  0.00  0.00    -0.445 OA
BRANCH  30  32
ATOM     31  C1  UNL     1      16.894  -3.085  24.431  0.00  0.00    +0.055 C 
ATOM     32  C2  UNL     1      15.707  -2.200  24.839  0.00  0.00    +0.107 C 
ATOM     33  C3  UNL     1      14.650  -3.078  25.537  0.00  0.00    +0.055 C 
ATOM     34  C4  UNL     1      16.211  -1.097  25.789  0.00  0.00    +0.055 C 
ENDBRANCH  30  32
ENDBRANCH  22  30
ENDBRANCH   1  28
TORSDOF 5
ENDMDL
MODEL 8
REMARK VINA RESULT:    -6.780      5.038      9.289
REMARK INTER + INTRA:          -9.889
REMARK INTER:                  -8.168
REMARK INTRA:                  -1.721
REMARK UNBOUND:                -1.127
REMARK  Name = /home/qwerty/github/datacon2025hack/step_04_hit_selection/docking/ligands/lig_316.pdb
REMARK  8 active torsions:
REMARK  status: ('A' for Active; 'I' for Inactive)
REMARK    1  A    between atoms: C1_1  and  C2_2
REMARK    2  A    between atoms: C2_2  and  C3_3
REMARK    3  A    between atoms: C2_2  and  C4_4
REMARK    4  A    between atoms: C2_2  and  O1_5
REMARK    5  A    between atoms: O1_5  and  C5_6
REMARK    6  A    between atoms: C9_12  and  N2_13
REMARK    7  A    between atoms: C10_14  and  C11_16
REMARK    8  A    between atoms: N3_24  and  C18_25
REMARK                            x       y       z     vdW  Elec       q    Type
REMARK                         _______ _______ _______ _____ _____    ______ ____
ROOT
ATOM      1  N2  UNL     1      11.768  12.529  32.693  0.00  0.00    -0.307 N 
ATOM      2  C10 UNL     1      11.164  13.685  32.090  0.00  0.00    +0.245 C 
ATOM      3  O3  UNL     1      10.737  14.623  32.816  0.00  0.00    -0.270 OA
ATOM      4  H17 UNL     1      12.300  11.874  32.076  0.00  0.00    +0.149 HD
ENDROOT
BRANCH   2   5
ATOM      5  C11 UNL     1      11.011  13.764  30.622  0.00  0.00    +0.050 A 
ATOM      6  C12 UNL     1       9.770  13.448  30.025  0.00  0.00    +0.014 A 
ATOM      7  C13 UNL     1       9.592  13.550  28.630  0.00  0.00    +0.002 A 
ATOM      8  C14 UNL     1      10.646  13.967  27.805  0.00  0.00    +0.014 A 
ATOM      9  C15 UNL     1      11.864  14.276  28.404  0.00  0.00    +0.050 A 
ATOM     10  C16 UNL     1      12.053  14.178  29.771  0.00  0.00    +0.061 A 
ATOM     11  C17 UNL     1      13.463  14.504  30.025  0.00  0.00    +0.255 C 
ATOM     12  O4  UNL     1      14.046  14.423  31.138  0.00  0.00    -0.269 OA
ATOM     13  N3  UNL     1      14.123  14.855  28.802  0.00  0.00    -0.231 N 
ATOM     14  C24 UNL     1      13.123  14.684  27.797  0.00  0.00    +0.254 C 
ATOM     15  O5  UNL     1      13.321  14.846  26.563  0.00  0.00    -0.270 OA
BRANCH  13  16
ATOM     16  C18 UNL     1      15.559  15.051  28.574  0.00  0.00    +0.085 C 
ATOM     17  C19 UNL     1      16.355  13.818  29.034  0.00  0.00    +0.023 C 
ATOM     18  C20 UNL     1      17.854  13.954  28.696  0.00  0.00    +0.002 C 
ATOM     19  C21 UNL     1      18.357  15.412  28.701  0.00  0.00    +0.000 C 
ATOM     20  C22 UNL     1      17.546  16.291  29.659  0.00  0.00    +0.002 C 
ATOM     21  C23 UNL     1      16.058  16.347  29.259  0.00  0.00    +0.023 C 
ENDBRANCH  13  16
ENDBRANCH   2   5
BRANCH   1  28
ATOM     22  C5  UNL     1      15.413  12.644  35.259  0.00  0.00    +0.403 C 
ATOM     23  O2  UNL     1      15.389  13.681  35.976  0.00  0.00    -0.226 OA
ATOM     24  N1  UNL     1      14.192  12.153  34.671  0.00  0.00    -0.266 N 
ATOM     25  C6  UNL     1      14.224  10.981  33.781  0.00  0.00    +0.111 C 
ATOM     26  C7  UNL     1      12.998  10.069  33.971  0.00  0.00    +0.021 C 
ATOM     27  C8  UNL     1      11.733  10.795  34.464  0.00  0.00    +0.025 C 
ATOM     28  C9  UNL     1      11.746  12.296  34.143  0.00  0.00    +0.091 C 
ATOM     29  C25 UNL     1      12.961  12.947  34.831  0.00  0.00    +0.133 C 
BRANCH  22  30
ATOM     30  O1  UNL     1      16.622  11.964  35.030  0.00  0.00    -0.445 OA
BRANCH  30  32
ATOM     31  C1  UNL     1      18.214  11.121  33.459  0.00  0.00    +0.055 C 
ATOM     32  C2  UNL     1      17.682  12.381  34.158  0.00  0.00    +0.107 C 
ATOM     33  C3  UNL     1      18.828  13.023  34.963  0.00  0.00    +0.055 C 
ATOM     34  C4  UNL     1      17.154  13.357  33.090  0.00  0.00    +0.055 C 
ENDBRANCH  30  32
ENDBRANCH  22  30
ENDBRANCH   1  28
TORSDOF 5
ENDMDL
MODEL 9
REMARK VINA RESULT:    -6.766      4.266      8.952
REMARK INTER + INTRA:          -9.871
REMARK INTER:                  -8.057
REMARK INTRA:                  -1.814
REMARK UNBOUND:                -1.127
REMARK  Name = /home/qwerty/github/datacon2025hack/step_04_hit_selection/docking/ligands/lig_316.pdb
REMARK  8 active torsions:
REMARK  status: ('A' for Active; 'I' for Inactive)
REMARK    1  A    between atoms: C1_1  and  C2_2
REMARK    2  A    between atoms: C2_2  and  C3_3
REMARK    3  A    between atoms: C2_2  and  C4_4
REMARK    4  A    between atoms: C2_2  and  O1_5
REMARK    5  A    between atoms: O1_5  and  C5_6
REMARK    6  A    between atoms: C9_12  and  N2_13
REMARK    7  A    between atoms: C10_14  and  C11_16
REMARK    8  A    between atoms: N3_24  and  C18_25
REMARK                            x       y       z     vdW  Elec       q    Type
REMARK                         _______ _______ _______ _____ _____    ______ ____
ROOT
ATOM      1  N2  UNL     1      21.915   5.117  31.894  0.00  0.00    -0.307 N 
ATOM      2  C10 UNL     1      22.541   3.836  32.069  0.00  0.00    +0.245 C 
ATOM      3  O3  UNL     1      23.672   3.760  32.622  0.00  0.00    -0.270 OA
ATOM      4  H17 UNL     1      20.902   5.138  31.635  0.00  0.00    +0.149 HD
ENDROOT
BRANCH   2   5
ATOM      5  C11 UNL     1      21.881   2.611  31.572  0.00  0.00    +0.050 A 
ATOM      6  C12 UNL     1      22.368   1.970  30.410  0.00  0.00    +0.014 A 
ATOM      7  C13 UNL     1      21.775   0.782  29.938  0.00  0.00    +0.002 A 
ATOM      8  C14 UNL     1      20.687   0.210  30.614  0.00  0.00    +0.014 A 
ATOM      9  C15 UNL     1      20.217   0.849  31.757  0.00  0.00    +0.050 A 
ATOM     10  C16 UNL     1      20.788   2.017  32.230  0.00  0.00    +0.061 A 
ATOM     11  C17 UNL     1      19.991   2.435  33.392  0.00  0.00    +0.255 C 
ATOM     12  O4  UNL     1      20.134   3.510  34.032  0.00  0.00    -0.269 OA
ATOM     13  N3  UNL     1      18.957   1.479  33.658  0.00  0.00    -0.231 N 
ATOM     14  C24 UNL     1      19.092   0.510  32.618  0.00  0.00    +0.254 C 
ATOM     15  O5  UNL     1      18.328  -0.480  32.466  0.00  0.00    -0.270 OA
BRANCH  13  16
ATOM     16  C18 UNL     1      17.827   1.604  34.587  0.00  0.00    +0.085 C 
ATOM     17  C19 UNL     1      16.850   2.692  34.110  0.00  0.00    +0.023 C 
ATOM     18  C20 UNL     1      15.597   2.759  35.008  0.00  0.00    +0.002 C 
ATOM     19  C21 UNL     1      15.867   2.362  36.474  0.00  0.00    +0.000 C 
ATOM     20  C22 UNL     1      17.313   2.658  36.886  0.00  0.00    +0.002 C 
ATOM     21  C23 UNL     1      18.324   1.868  36.030  0.00  0.00    +0.023 C 
ENDBRANCH  13  16
ENDBRANCH   2   5
BRANCH   1  28
ATOM     22  C5  UNL     1      20.984   7.755  35.367  0.00  0.00    +0.403 C 
ATOM     23  O2  UNL     1      21.920   7.688  36.208  0.00  0.00    -0.226 OA
ATOM     24  N1  UNL     1      21.218   7.353  34.003  0.00  0.00    -0.266 N 
ATOM     25  C6  UNL     1      20.111   7.368  33.032  0.00  0.00    +0.111 C 
ATOM     26  C7  UNL     1      20.567   7.822  31.633  0.00  0.00    +0.021 C 
ATOM     27  C8  UNL     1      22.043   7.524  31.316  0.00  0.00    +0.025 C 
ATOM     28  C9  UNL     1      22.616   6.380  32.164  0.00  0.00    +0.091 C 
ATOM     29  C25 UNL     1      22.521   6.762  33.653  0.00  0.00    +0.133 C 
BRANCH  22  30
ATOM     30  O1  UNL     1      19.714   8.219  35.751  0.00  0.00    -0.445 OA
BRANCH  30  32
ATOM     31  C1  UNL     1      18.854   7.916  37.961  0.00  0.00    +0.055 C 
ATOM     32  C2  UNL     1      18.726   7.487  36.492  0.00  0.00    +0.107 C 
ATOM     33  C3  UNL     1      18.985   5.971  36.392  0.00  0.00    +0.055 C 
ATOM     34  C4  UNL     1      17.310   7.831  35.993  0.00  0.00    +0.055 C 
ENDBRANCH  30  32
ENDBRANCH  22  30
ENDBRANCH   1  28
TORSDOF 5
ENDMDL
