REMARK  Name = /home/qwerty/github/datacon2025hack/step_04_hit_selection/docking/ligands/lig_105.pdb
REMARK  7 active torsions:
REMARK  status: ('A' for Active; 'I' for Inactive)
REMARK    1  A    between atoms: C1_1  and  O1_2
REMARK    2  A    between atoms: O1_2  and  C2_3
REMARK    3  A    between atoms: C4_5  and  C5_6
REMARK    4  A    between atoms: N1_8  and  C6_9
REMARK    5  A    between atoms: N2_12  and  C9_13
REMARK    6  A    between atoms: C11_15  and  C12_16
REMARK    7  A    between atoms: C16_22  and  C17_23
REMARK                            x       y       z     vdW  Elec       q    Type
REMARK                         _______ _______ _______ _____ _____    ______ ____
ROOT
ATOM      1  C5  UNL     1       1.445   0.986  -0.577  0.00  0.00    +0.245 C 
ATOM      2  O2  UNL     1       1.084   1.180  -1.770  0.00  0.00    -0.270 OA
ATOM      3  N1  UNL     1       0.609   1.440   0.500  0.00  0.00    -0.307 N 
ATOM      4  H5  UNL     1       1.012   1.495   1.462  0.00  0.00    +0.149 HD
ENDROOT
BRANCH   1   7
ATOM      5  C2  UNL     1       4.959  -0.341  -1.033  0.00  0.00    +0.215 A 
ATOM      6  C3  UNL     1       3.748   0.309  -1.284  0.00  0.00    +0.080 A 
ATOM      7  C4  UNL     1       2.735   0.306  -0.310  0.00  0.00    +0.043 A 
ATOM      8  C15 UNL     1       2.962  -0.374   0.898  0.00  0.00    +0.036 A 
ATOM      9  C16 UNL     1       4.191  -1.010   1.118  0.00  0.00    +0.043 A 
ATOM     10  C17 UNL     1       4.441  -1.752   2.392  0.00  0.00    +0.066 C 
ATOM     11  N5  UNL     1       5.149  -0.981   0.153  0.00  0.00    -0.218 NA
BRANCH   5  13
ATOM     12  C1  UNL     1       7.219  -0.965  -1.827  0.00  0.00    +0.279 C 
ATOM     13  O1  UNL     1       5.961  -0.326  -2.007  0.00  0.00    -0.480 OA
ENDBRANCH   5  13
ENDBRANCH   1   7
BRANCH   3  14
ATOM     14  C6  UNL     1      -0.752   1.933   0.261  0.00  0.00    +0.092 C 
ATOM     15  C7  UNL     1      -1.399   2.496   1.532  0.00  0.00    +0.043 C 
ATOM     16  C8  UNL     1      -2.882   2.171   1.405  0.00  0.00    +0.108 C 
ATOM     17  N2  UNL     1      -2.962   1.086   0.440  0.00  0.00    -0.313 N 
ATOM     18  C14 UNL     1      -1.684   0.813  -0.198  0.00  0.00    +0.128 C 
BRANCH  17  19
ATOM     19  C9  UNL     1      -4.185   0.377   0.163  0.00  0.00    +0.125 A 
ATOM     20  C10 UNL     1      -4.210  -0.728  -0.702  0.00  0.00    +0.066 A 
ATOM     21  C11 UNL     1      -5.428  -1.376  -0.932  0.00  0.00    +0.043 A 
ATOM     22  C12 UNL     1      -5.495  -2.562  -1.841  0.00  0.00    +0.066 C 
ATOM     23  N3  UNL     1      -6.555  -0.931  -0.315  0.00  0.00    -0.240 NA
ATOM     24  C13 UNL     1      -6.518   0.138   0.521  0.00  0.00    +0.223 A 
ATOM     25  N4  UNL     1      -5.344   0.780   0.753  0.00  0.00    -0.221 NA
ENDBRANCH  17  19
ENDBRANCH   3  14
TORSDOF 4
