REMARK  Name = /home/qwerty/github/datacon2025hack/step_04_hit_selection/docking/ligands/lig_551.pdb
REMARK  6 active torsions:
REMARK  status: ('A' for Active; 'I' for Inactive)
REMARK    1  A    between atoms: C1_1  and  N1_2
REMARK    2  A    between atoms: N1_2  and  C2_3
REMARK    3  A    between atoms: C3_4  and  C4_6
REMARK    4  A    between atoms: C8_10  and  C9_11
REMARK    5  A    between atoms: C13_16  and  C14_17
REMARK    6  A    between atoms: C18_21  and  N3_22
REMARK                            x       y       z     vdW  Elec       q    Type
REMARK                         _______ _______ _______ _____ _____    ______ ____
ROOT
ATOM      1  C9  UNL     1      -0.906  -0.538  -0.262  0.00  0.00    +0.072 A 
ATOM      2  C10 UNL     1      -0.850   0.050   1.034  0.00  0.00    +0.030 A 
ATOM      3  C11 UNL     1       0.383   0.463   1.569  0.00  0.00    +0.030 A 
ATOM      4  C12 UNL     1       1.517   0.268   0.790  0.00  0.00    +0.065 A 
ATOM      5  N2  UNL     1       2.791   0.571   1.085  0.00  0.00    -0.353 N 
ATOM      6  C13 UNL     1       3.523   0.173   0.010  0.00  0.00    +0.049 A 
ATOM      7  C20 UNL     1       2.695  -0.388  -0.970  0.00  0.00    +0.056 A 
ATOM      8  C21 UNL     1       1.431  -0.309  -0.439  0.00  0.00    +0.090 A 
ATOM      9  N4  UNL     1       0.253  -0.713  -0.973  0.00  0.00    -0.245 NA
ATOM     10  H12 UNL     1       3.133   1.000   1.973  0.00  0.00    +0.166 HD
ENDROOT
BRANCH   1  15
ATOM     11  C4  UNL     1      -4.616  -0.788  -1.096  0.00  0.00    +0.038 A 
ATOM     12  C5  UNL     1      -4.605  -1.851  -2.011  0.00  0.00    +0.013 A 
ATOM     13  C6  UNL     1      -3.405  -2.483  -2.341  0.00  0.00    +0.001 A 
ATOM     14  C7  UNL     1      -2.205  -2.058  -1.765  0.00  0.00    +0.010 A 
ATOM     15  C8  UNL     1      -2.191  -0.989  -0.852  0.00  0.00    +0.001 A 
ATOM     16  C22 UNL     1      -3.405  -0.347  -0.538  0.00  0.00    +0.023 A 
BRANCH  11  20
ATOM     17  C1  UNL     1      -5.722  -0.482   1.722  0.00  0.00    +0.132 C 
ATOM     18  N1  UNL     1      -6.210   0.294   0.577  0.00  0.00    -0.304 N 
ATOM     19  C2  UNL     1      -7.158   1.392   0.785  0.00  0.00    +0.132 C 
ATOM     20  C3  UNL     1      -5.888  -0.107  -0.770  0.00  0.00    +0.246 C 
ATOM     21  O1  UNL     1      -6.711   0.118  -1.699  0.00  0.00    -0.270 OA
ENDBRANCH  11  20
ENDBRANCH   1  15
BRANCH   6  22
ATOM     22  C14 UNL     1       4.997   0.319  -0.090  0.00  0.00    +0.000 A 
ATOM     23  C15 UNL     1       5.738  -0.490  -0.972  0.00  0.00    +0.010 A 
ATOM     24  C16 UNL     1       7.125  -0.352  -1.064  0.00  0.00    +0.002 A 
ATOM     25  C17 UNL     1       7.791   0.593  -0.281  0.00  0.00    +0.023 A 
ATOM     26  C18 UNL     1       7.070   1.408   0.600  0.00  0.00    +0.025 A 
ATOM     27  C19 UNL     1       5.678   1.270   0.694  0.00  0.00    +0.032 A 
BRANCH  26  28
ATOM     28  N3  UNL     1       7.752   2.381   1.398  0.00  0.00    -0.358 N 
ATOM     29  H16 UNL     1       7.225   2.995   2.059  0.00  0.00    +0.142 HD
ATOM     30  H17 UNL     1       8.788   2.493   1.335  0.00  0.00    +0.142 HD
ENDBRANCH  26  28
ENDBRANCH   6  22
TORSDOF 4
