REMARK  Name = /home/qwerty/github/datacon2025hack/step_04_hit_selection/docking/ligands/lig_430.pdb
REMARK  4 active torsions:
REMARK  status: ('A' for Active; 'I' for Inactive)
REMARK    1  A    between atoms: C1_1  and  C2_2
REMARK    2  A    between atoms: C5_5  and  N1_6
REMARK    3  A    between atoms: N2_9  and  C7_10
REMARK    4  A    between atoms: C11_14  and  C12_15
REMARK                            x       y       z     vdW  Elec       q    Type
REMARK                         _______ _______ _______ _____ _____    ______ ____
ROOT
ATOM      1  N1  UNL     1      -1.703   0.808   0.653  0.00  0.00    -0.296 N 
ATOM      2  C6  UNL     1      -0.550  -0.041   0.575  0.00  0.00    +0.304 C 
ATOM      3  O1  UNL     1      -0.690  -1.295   0.560  0.00  0.00    -0.253 OA
ATOM      4  N2  UNL     1       0.756   0.546   0.471  0.00  0.00    -0.269 N 
ATOM      5  H10 UNL     1      -1.548   1.839   0.725  0.00  0.00    +0.151 HD
ATOM      6  H11 UNL     1       0.812   1.554   0.200  0.00  0.00    +0.156 HD
ENDROOT
BRANCH   1  11
ATOM      7  C1  UNL     1      -5.568  -0.190  -2.076  0.00  0.00    +0.007 C 
ATOM      8  C2  UNL     1      -4.994  -0.263  -0.658  0.00  0.00    -0.012 C 
ATOM      9  C3  UNL     1      -5.368   0.955   0.197  0.00  0.00    +0.005 C 
ATOM     10  C4  UNL     1      -4.112   1.348   0.977  0.00  0.00    +0.022 C 
ATOM     11  C5  UNL     1      -3.067   0.268   0.690  0.00  0.00    +0.075 C 
ATOM     12  C16 UNL     1      -3.470  -0.321  -0.654  0.00  0.00    +0.025 C 
ENDBRANCH   1  11
BRANCH   4  13
ATOM     13  C7  UNL     1       1.985  -0.190   0.593  0.00  0.00    +0.035 A 
ATOM     14  C8  UNL     1       2.107  -1.270   1.484  0.00  0.00    +0.023 A 
ATOM     15  C9  UNL     1       3.318  -1.953   1.600  0.00  0.00    +0.002 A 
ATOM     16  C10 UNL     1       4.423  -1.562   0.841  0.00  0.00    +0.010 A 
ATOM     17  C11 UNL     1       4.331  -0.470  -0.039  0.00  0.00    +0.009 A 
ATOM     18  C15 UNL     1       3.106   0.215  -0.149  0.00  0.00    +0.034 A 
BRANCH  17  19
ATOM     19  C12 UNL     1       5.512  -0.053  -0.831  0.00  0.00    +0.108 A 
ATOM     20  N3  UNL     1       6.704  -0.689  -0.786  0.00  0.00    -0.247 NA
ATOM     21  C13 UNL     1       7.628  -0.116  -1.604  0.00  0.00    +0.119 A 
ATOM     22  C14 UNL     1       7.182   0.989  -2.315  0.00  0.00    +0.067 A 
ATOM     23  S1  UNL     1       5.575   1.250  -1.899  0.00  0.00    -0.076 S 
ENDBRANCH  17  19
ENDBRANCH   4  13
TORSDOF 3
