MODEL 1
REMARK VINA RESULT:    -7.242      0.000      0.000
REMARK INTER + INTRA:          -9.735
REMARK INTER:                  -8.935
REMARK INTRA:                  -0.799
REMARK UNBOUND:                -0.799
REMARK  Name = /home/qwerty/github/datacon2025hack/step_04_hit_selection/docking/ligands/lig_638.pdb
REMARK  7 active torsions:
REMARK  status: ('A' for Active; 'I' for Inactive)
REMARK    1  A    between atoms: C1_1  and  C2_2
REMARK    2  A    between atoms: C2_2  and  C3_3
REMARK    3  A    between atoms: C2_2  and  C4_4
REMARK    4  A    between atoms: C2_2  and  C5_5
REMARK    5  A    between atoms: C8_8  and  C9_9
REMARK    6  A    between atoms: C12_12  and  N1_13
REMARK    7  A    between atoms: N2_16  and  C14_17
REMARK                            x       y       z     vdW  Elec       q    Type
REMARK                         _______ _______ _______ _____ _____    ______ ____
ROOT
ATOM      1  C9  UNL     1      19.876   9.135  36.501  0.00  0.00    +0.137 A 
ATOM      2  C10 UNL     1      19.442   8.304  37.524  0.00  0.00    +0.052 A 
ATOM      3  C11 UNL     1      18.412   8.971  38.152  0.00  0.00    +0.067 A 
ATOM      4  C12 UNL     1      18.279  10.167  37.469  0.00  0.00    +0.194 A 
ATOM      5  O2  UNL     1      19.161  10.239  36.501  0.00  0.00    -0.441 OA
ENDROOT
BRANCH   1   9
ATOM      6  C5  UNL     1      23.085   8.327  33.716  0.00  0.00    -0.042 A 
ATOM      7  C6  UNL     1      22.098   9.293  33.424  0.00  0.00    +0.005 A 
ATOM      8  C7  UNL     1      21.058   9.560  34.317  0.00  0.00    +0.012 A 
ATOM      9  C8  UNL     1      20.969   8.870  35.536  0.00  0.00    +0.017 A 
ATOM     10  C20 UNL     1      21.943   7.908  35.839  0.00  0.00    +0.012 A 
ATOM     11  C21 UNL     1      22.984   7.638  34.947  0.00  0.00    +0.005 A 
BRANCH   6  13
ATOM     12  C1  UNL     1      25.106   6.855  33.085  0.00  0.00    +0.015 C 
ATOM     13  C2  UNL     1      24.217   8.062  32.702  0.00  0.00    -0.013 C 
ATOM     14  C3  UNL     1      23.606   7.773  31.313  0.00  0.00    +0.015 C 
ATOM     15  C4  UNL     1      25.128   9.305  32.612  0.00  0.00    +0.015 C 
ENDBRANCH   6  13
ENDBRANCH   1   9
BRANCH   4  16
ATOM     16  N1  UNL     1      17.352  11.225  37.756  0.00  0.00    -0.240 N 
ATOM     17  C13 UNL     1      16.172  11.512  36.990  0.00  0.00    +0.310 C 
ATOM     18  O1  UNL     1      16.001  10.982  35.859  0.00  0.00    -0.252 OA
ATOM     19  N2  UNL     1      15.223  12.468  37.489  0.00  0.00    -0.269 N 
ATOM     20  H14 UNL     1      17.573  11.845  38.567  0.00  0.00    +0.159 HD
ATOM     21  H15 UNL     1      15.531  13.097  38.264  0.00  0.00    +0.156 HD
BRANCH  19  22
ATOM     22  C14 UNL     1      13.920  12.686  36.919  0.00  0.00    +0.035 A 
ATOM     23  C15 UNL     1      13.665  13.878  36.223  0.00  0.00    +0.026 A 
ATOM     24  C16 UNL     1      12.400  14.123  35.680  0.00  0.00    +0.040 A 
ATOM     25  C17 UNL     1      11.375  13.187  35.841  0.00  0.00    +0.124 A 
ATOM     26  F1  UNL     1      10.148  13.427  35.315  0.00  0.00    -0.205 F 
ATOM     27  C18 UNL     1      11.613  12.008  36.552  0.00  0.00    +0.040 A 
ATOM     28  C19 UNL     1      12.876  11.759  37.096  0.00  0.00    +0.026 A 
ENDBRANCH  19  22
ENDBRANCH   4  16
TORSDOF 4
ENDMDL
MODEL 2
REMARK VINA RESULT:    -7.078     15.512     16.917
REMARK INTER + INTRA:          -9.532
REMARK INTER:                  -8.715
REMARK INTRA:                  -0.817
REMARK UNBOUND:                -0.799
REMARK  Name = /home/qwerty/github/datacon2025hack/step_04_hit_selection/docking/ligands/lig_638.pdb
REMARK  7 active torsions:
REMARK  status: ('A' for Active; 'I' for Inactive)
REMARK    1  A    between atoms: C1_1  and  C2_2
REMARK    2  A    between atoms: C2_2  and  C3_3
REMARK    3  A    between atoms: C2_2  and  C4_4
REMARK    4  A    between atoms: C2_2  and  C5_5
REMARK    5  A    between atoms: C8_8  and  C9_9
REMARK    6  A    between atoms: C12_12  and  N1_13
REMARK    7  A    between atoms: N2_16  and  C14_17
REMARK                            x       y       z     vdW  Elec       q    Type
REMARK                         _______ _______ _______ _____ _____    ______ ____
ROOT
ATOM      1  C9  UNL     1      13.959   2.281  21.145  0.00  0.00    +0.137 A 
ATOM      2  C10 UNL     1      14.772   2.890  20.200  0.00  0.00    +0.052 A 
ATOM      3  C11 UNL     1      13.977   3.801  19.537  0.00  0.00    +0.067 A 
ATOM      4  C12 UNL     1      12.728   3.693  20.123  0.00  0.00    +0.194 A 
ATOM      5  O2  UNL     1      12.746   2.783  21.068  0.00  0.00    -0.441 OA
ENDROOT
BRANCH   1   9
ATOM      6  C5  UNL     1      15.044  -0.793  23.987  0.00  0.00    -0.042 A 
ATOM      7  C6  UNL     1      15.858  -0.523  22.866  0.00  0.00    +0.005 A 
ATOM      8  C7  UNL     1      15.516   0.468  21.943  0.00  0.00    +0.012 A 
ATOM      9  C8  UNL     1      14.345   1.225  22.110  0.00  0.00    +0.017 A 
ATOM     10  C20 UNL     1      13.527   0.967  23.219  0.00  0.00    +0.012 A 
ATOM     11  C21 UNL     1      13.868  -0.024  24.144  0.00  0.00    +0.005 A 
BRANCH   6  13
ATOM     12  C1  UNL     1      14.276  -2.784  25.434  0.00  0.00    +0.015 C 
ATOM     13  C2  UNL     1      15.459  -1.896  24.983  0.00  0.00    -0.013 C 
ATOM     14  C3  UNL     1      16.511  -2.815  24.323  0.00  0.00    +0.015 C 
ATOM     15  C4  UNL     1      16.067  -1.247  26.246  0.00  0.00    +0.015 C 
ENDBRANCH   6  13
ENDBRANCH   1   9
BRANCH   4  16
ATOM     16  N1  UNL     1      11.543   4.421  19.767  0.00  0.00    -0.240 N 
ATOM     17  C13 UNL     1      10.999   5.519  20.514  0.00  0.00    +0.310 C 
ATOM     18  O1  UNL     1      11.412   5.765  21.679  0.00  0.00    -0.252 OA
ATOM     19  N2  UNL     1       9.924   6.289  19.953  0.00  0.00    -0.269 N 
ATOM     20  H14 UNL     1      11.029   4.105  18.914  0.00  0.00    +0.159 HD
ATOM     21  H15 UNL     1       9.414   5.886  19.135  0.00  0.00    +0.156 HD
BRANCH  19  22
ATOM     22  C14 UNL     1       9.439   7.524  20.510  0.00  0.00    +0.035 A 
ATOM     23  C15 UNL     1      10.131   8.716  20.246  0.00  0.00    +0.026 A 
ATOM     24  C16 UNL     1       9.693   9.926  20.794  0.00  0.00    +0.040 A 
ATOM     25  C17 UNL     1       8.570   9.952  21.624  0.00  0.00    +0.124 A 
ATOM     26  F1  UNL     1       8.148  11.125  22.157  0.00  0.00    -0.205 F 
ATOM     27  C18 UNL     1       7.887   8.767  21.912  0.00  0.00    +0.040 A 
ATOM     28  C19 UNL     1       8.321   7.556  21.365  0.00  0.00    +0.026 A 
ENDBRANCH  19  22
ENDBRANCH   4  16
TORSDOF 4
ENDMDL
MODEL 3
REMARK VINA RESULT:    -6.753      6.192      7.675
REMARK INTER + INTRA:          -9.132
REMARK INTER:                  -8.365
REMARK INTRA:                  -0.766
REMARK UNBOUND:                -0.799
REMARK  Name = /home/qwerty/github/datacon2025hack/step_04_hit_selection/docking/ligands/lig_638.pdb
REMARK  7 active torsions:
REMARK  status: ('A' for Active; 'I' for Inactive)
REMARK    1  A    between atoms: C1_1  and  C2_2
REMARK    2  A    between atoms: C2_2  and  C3_3
REMARK    3  A    between atoms: C2_2  and  C4_4
REMARK    4  A    between atoms: C2_2  and  C5_5
REMARK    5  A    between atoms: C8_8  and  C9_9
REMARK    6  A    between atoms: C12_12  and  N1_13
REMARK    7  A    between atoms: N2_16  and  C14_17
REMARK                            x       y       z     vdW  Elec       q    Type
REMARK                         _______ _______ _______ _____ _____    ______ ____
ROOT
ATOM      1  C9  UNL     1      19.166   1.866  33.530  0.00  0.00    +0.137 A 
ATOM      2  C10 UNL     1      17.951   1.252  33.798  0.00  0.00    +0.052 A 
ATOM      3  C11 UNL     1      17.465   1.844  34.944  0.00  0.00    +0.067 A 
ATOM      4  C12 UNL     1      18.412   2.786  35.302  0.00  0.00    +0.194 A 
ATOM      5  O2  UNL     1      19.411   2.773  34.450  0.00  0.00    -0.441 OA
ENDROOT
BRANCH   1   9
ATOM      6  C5  UNL     1      21.873   1.069  30.252  0.00  0.00    -0.042 A 
ATOM      7  C6  UNL     1      20.740   0.254  30.471  0.00  0.00    +0.005 A 
ATOM      8  C7  UNL     1      19.861   0.505  31.527  0.00  0.00    +0.012 A 
ATOM      9  C8  UNL     1      20.084   1.580  32.402  0.00  0.00    +0.017 A 
ATOM     10  C20 UNL     1      21.204   2.396  32.196  0.00  0.00    +0.012 A 
ATOM     11  C21 UNL     1      22.086   2.148  31.140  0.00  0.00    +0.005 A 
BRANCH   6  13
ATOM     12  C1  UNL     1      24.311   0.968  29.422  0.00  0.00    +0.015 C 
ATOM     13  C2  UNL     1      22.819   0.758  29.074  0.00  0.00    -0.013 C 
ATOM     14  C3  UNL     1      22.639  -0.715  28.645  0.00  0.00    +0.015 C 
ATOM     15  C4  UNL     1      22.480   1.682  27.884  0.00  0.00    +0.015 C 
ENDBRANCH   6  13
ENDBRANCH   1   9
BRANCH   4  16
ATOM     16  N1  UNL     1      18.378   3.654  36.445  0.00  0.00    -0.240 N 
ATOM     17  C13 UNL     1      18.305   5.086  36.386  0.00  0.00    +0.310 C 
ATOM     18  O1  UNL     1      18.504   5.691  35.299  0.00  0.00    -0.252 OA
ATOM     19  N2  UNL     1      18.079   5.830  37.594  0.00  0.00    -0.269 N 
ATOM     20  H14 UNL     1      18.438   3.204  37.385  0.00  0.00    +0.159 HD
ATOM     21  H15 UNL     1      18.213   5.332  38.502  0.00  0.00    +0.156 HD
BRANCH  19  22
ATOM     22  C14 UNL     1      17.786   7.238  37.632  0.00  0.00    +0.035 A 
ATOM     23  C15 UNL     1      16.482   7.677  37.352  0.00  0.00    +0.026 A 
ATOM     24  C16 UNL     1      16.176   9.041  37.360  0.00  0.00    +0.040 A 
ATOM     25  C17 UNL     1      17.175   9.981  37.631  0.00  0.00    +0.124 A 
ATOM     26  F1  UNL     1      16.878  11.304  37.636  0.00  0.00    -0.205 F 
ATOM     27  C18 UNL     1      18.481   9.556  37.887  0.00  0.00    +0.040 A 
ATOM     28  C19 UNL     1      18.790   8.192  37.882  0.00  0.00    +0.026 A 
ENDBRANCH  19  22
ENDBRANCH   4  16
TORSDOF 4
ENDMDL
MODEL 4
REMARK VINA RESULT:    -6.750      4.455      6.110
REMARK INTER + INTRA:          -9.128
REMARK INTER:                  -8.449
REMARK INTRA:                  -0.678
REMARK UNBOUND:                -0.799
REMARK  Name = /home/qwerty/github/datacon2025hack/step_04_hit_selection/docking/ligands/lig_638.pdb
REMARK  7 active torsions:
REMARK  status: ('A' for Active; 'I' for Inactive)
REMARK    1  A    between atoms: C1_1  and  C2_2
REMARK    2  A    between atoms: C2_2  and  C3_3
REMARK    3  A    between atoms: C2_2  and  C4_4
REMARK    4  A    between atoms: C2_2  and  C5_5
REMARK    5  A    between atoms: C8_8  and  C9_9
REMARK    6  A    between atoms: C12_12  and  N1_13
REMARK    7  A    between atoms: N2_16  and  C14_17
REMARK                            x       y       z     vdW  Elec       q    Type
REMARK                         _______ _______ _______ _____ _____    ______ ____
ROOT
ATOM      1  C9  UNL     1      22.256   5.472  34.484  0.00  0.00    +0.137 A 
ATOM      2  C10 UNL     1      23.573   5.889  34.623  0.00  0.00    +0.052 A 
ATOM      3  C11 UNL     1      23.552   6.935  35.520  0.00  0.00    +0.067 A 
ATOM      4  C12 UNL     1      22.224   7.089  35.877  0.00  0.00    +0.194 A 
ATOM      5  O2  UNL     1      21.479   6.213  35.244  0.00  0.00    -0.441 OA
ENDROOT
BRANCH   1   9
ATOM      6  C5  UNL     1      20.827   2.268  31.954  0.00  0.00    -0.042 A 
ATOM      7  C6  UNL     1      20.026   2.779  32.999  0.00  0.00    +0.005 A 
ATOM      8  C7  UNL     1      20.479   3.814  33.821  0.00  0.00    +0.012 A 
ATOM      9  C8  UNL     1      21.751   4.374  33.626  0.00  0.00    +0.017 A 
ATOM     10  C20 UNL     1      22.557   3.876  32.592  0.00  0.00    +0.012 A 
ATOM     11  C21 UNL     1      22.106   2.842  31.769  0.00  0.00    +0.005 A 
BRANCH   6  13
ATOM     12  C1  UNL     1      19.076   1.546  30.205  0.00  0.00    +0.015 C 
ATOM     13  C2  UNL     1      20.288   1.126  31.069  0.00  0.00    -0.013 C 
ATOM     14  C3  UNL     1      21.402   0.646  30.113  0.00  0.00    +0.015 C 
ATOM     15  C4  UNL     1      19.841  -0.051  31.964  0.00  0.00    +0.015 C 
ENDBRANCH   6  13
ENDBRANCH   1   9
BRANCH   4  16
ATOM     16  N1  UNL     1      21.679   8.068  36.774  0.00  0.00    -0.240 N 
ATOM     17  C13 UNL     1      20.504   8.852  36.517  0.00  0.00    +0.310 C 
ATOM     18  O1  UNL     1      20.004   8.892  35.361  0.00  0.00    -0.252 OA
ATOM     19  N2  UNL     1      19.948   9.653  37.572  0.00  0.00    -0.269 N 
ATOM     20  H14 UNL     1      22.195   8.235  37.666  0.00  0.00    +0.159 HD
ATOM     21  H15 UNL     1      20.543   9.829  38.412  0.00  0.00    +0.156 HD
BRANCH  19  22
ATOM     22  C14 UNL     1      18.672  10.314  37.496  0.00  0.00    +0.035 A 
ATOM     23  C15 UNL     1      18.575  11.548  36.833  0.00  0.00    +0.026 A 
ATOM     24  C16 UNL     1      17.352  12.221  36.765  0.00  0.00    +0.040 A 
ATOM     25  C17 UNL     1      16.218  11.676  37.373  0.00  0.00    +0.124 A 
ATOM     26  F1  UNL     1      15.032  12.331  37.309  0.00  0.00    -0.205 F 
ATOM     27  C18 UNL     1      16.309  10.459  38.056  0.00  0.00    +0.040 A 
ATOM     28  C19 UNL     1      17.531   9.783  38.125  0.00  0.00    +0.026 A 
ENDBRANCH  19  22
ENDBRANCH   4  16
TORSDOF 4
ENDMDL
MODEL 5
REMARK VINA RESULT:    -6.737      3.956     10.316
REMARK INTER + INTRA:          -9.111
REMARK INTER:                  -8.548
REMARK INTRA:                  -0.563
REMARK UNBOUND:                -0.799
REMARK  Name = /home/qwerty/github/datacon2025hack/step_04_hit_selection/docking/ligands/lig_638.pdb
REMARK  7 active torsions:
REMARK  status: ('A' for Active; 'I' for Inactive)
REMARK    1  A    between atoms: C1_1  and  C2_2
REMARK    2  A    between atoms: C2_2  and  C3_3
REMARK    3  A    between atoms: C2_2  and  C4_4
REMARK    4  A    between atoms: C2_2  and  C5_5
REMARK    5  A    between atoms: C8_8  and  C9_9
REMARK    6  A    between atoms: C12_12  and  N1_13
REMARK    7  A    between atoms: N2_16  and  C14_17
REMARK                            x       y       z     vdW  Elec       q    Type
REMARK                         _______ _______ _______ _____ _____    ______ ____
ROOT
ATOM      1  C9  UNL     1      17.316  11.393  36.375  0.00  0.00    +0.137 A 
ATOM      2  C10 UNL     1      18.046  12.538  36.085  0.00  0.00    +0.052 A 
ATOM      3  C11 UNL     1      19.374  12.185  36.195  0.00  0.00    +0.067 A 
ATOM      4  C12 UNL     1      19.372  10.845  36.540  0.00  0.00    +0.194 A 
ATOM      5  O2  UNL     1      18.140  10.405  36.645  0.00  0.00    -0.441 OA
ENDROOT
BRANCH   1   9
ATOM      6  C5  UNL     1      13.015  10.940  36.419  0.00  0.00    -0.042 A 
ATOM      7  C6  UNL     1      13.618  12.164  36.779  0.00  0.00    +0.005 A 
ATOM      8  C7  UNL     1      15.007  12.320  36.768  0.00  0.00    +0.012 A 
ATOM      9  C8  UNL     1      15.841  11.254  36.395  0.00  0.00    +0.017 A 
ATOM     10  C20 UNL     1      15.255  10.033  36.035  0.00  0.00    +0.012 A 
ATOM     11  C21 UNL     1      13.866   9.874  36.045  0.00  0.00    +0.005 A 
BRANCH   6  13
ATOM     12  C1  UNL     1      10.993   9.344  36.535  0.00  0.00    +0.015 C 
ATOM     13  C2  UNL     1      11.478  10.811  36.444  0.00  0.00    -0.013 C 
ATOM     14  C3  UNL     1      10.918  11.567  37.669  0.00  0.00    +0.015 C 
ATOM     15  C4  UNL     1      10.888  11.421  35.154  0.00  0.00    +0.015 C 
ENDBRANCH   6  13
ENDBRANCH   1   9
BRANCH   4  16
ATOM     16  N1  UNL     1      20.517  10.017  36.794  0.00  0.00    -0.240 N 
ATOM     17  C13 UNL     1      21.131   9.149  35.829  0.00  0.00    +0.310 C 
ATOM     18  O1  UNL     1      20.545   8.884  34.745  0.00  0.00    -0.252 OA
ATOM     19  N2  UNL     1      22.386   8.523  36.143  0.00  0.00    -0.269 N 
ATOM     20  H14 UNL     1      20.911  10.034  37.761  0.00  0.00    +0.159 HD
ATOM     21  H15 UNL     1      22.692   8.526  37.141  0.00  0.00    +0.156 HD
BRANCH  19  22
ATOM     22  C14 UNL     1      23.189   7.804  35.190  0.00  0.00    +0.035 A 
ATOM     23  C15 UNL     1      23.473   8.392  33.948  0.00  0.00    +0.026 A 
ATOM     24  C16 UNL     1      24.233   7.705  32.996  0.00  0.00    +0.040 A 
ATOM     25  C17 UNL     1      24.701   6.418  33.271  0.00  0.00    +0.124 A 
ATOM     26  F1  UNL     1      25.436   5.751  32.347  0.00  0.00    -0.205 F 
ATOM     27  C18 UNL     1      24.404   5.814  34.496  0.00  0.00    +0.040 A 
ATOM     28  C19 UNL     1      23.646   6.499  35.451  0.00  0.00    +0.026 A 
ENDBRANCH  19  22
ENDBRANCH   4  16
TORSDOF 4
ENDMDL
MODEL 6
REMARK VINA RESULT:    -6.591      3.777     10.021
REMARK INTER + INTRA:          -8.932
REMARK INTER:                  -8.094
REMARK INTRA:                  -0.838
REMARK UNBOUND:                -0.799
REMARK  Name = /home/qwerty/github/datacon2025hack/step_04_hit_selection/docking/ligands/lig_638.pdb
REMARK  7 active torsions:
REMARK  status: ('A' for Active; 'I' for Inactive)
REMARK    1  A    between atoms: C1_1  and  C2_2
REMARK    2  A    between atoms: C2_2  and  C3_3
REMARK    3  A    between atoms: C2_2  and  C4_4
REMARK    4  A    between atoms: C2_2  and  C5_5
REMARK    5  A    between atoms: C8_8  and  C9_9
REMARK    6  A    between atoms: C12_12  and  N1_13
REMARK    7  A    between atoms: N2_16  and  C14_17
REMARK                            x       y       z     vdW  Elec       q    Type
REMARK                         _______ _______ _______ _____ _____    ______ ____
ROOT
ATOM      1  C9  UNL     1      16.487  10.731  37.075  0.00  0.00    +0.137 A 
ATOM      2  C10 UNL     1      16.396   9.988  38.244  0.00  0.00    +0.052 A 
ATOM      3  C11 UNL     1      17.679   9.584  38.544  0.00  0.00    +0.067 A 
ATOM      4  C12 UNL     1      18.474  10.109  37.542  0.00  0.00    +0.194 A 
ATOM      5  O2  UNL     1      17.741  10.778  36.683  0.00  0.00    -0.441 OA
ENDROOT
BRANCH   1   9
ATOM      6  C5  UNL     1      13.281  12.652  34.900  0.00  0.00    -0.042 A 
ATOM      7  C6  UNL     1      13.025  11.955  36.100  0.00  0.00    +0.005 A 
ATOM      8  C7  UNL     1      14.055  11.331  36.810  0.00  0.00    +0.012 A 
ATOM      9  C8  UNL     1      15.377  11.384  36.342  0.00  0.00    +0.017 A 
ATOM     10  C20 UNL     1      15.645  12.073  35.151  0.00  0.00    +0.012 A 
ATOM     11  C21 UNL     1      14.617  12.698  34.439  0.00  0.00    +0.005 A 
BRANCH   6  13
ATOM     12  C1  UNL     1      12.535  14.622  33.413  0.00  0.00    +0.015 C 
ATOM     13  C2  UNL     1      12.115  13.327  34.148  0.00  0.00    -0.013 C 
ATOM     14  C3  UNL     1      11.550  12.351  33.092  0.00  0.00    +0.015 C 
ATOM     15  C4  UNL     1      11.001  13.697  35.151  0.00  0.00    +0.015 C 
ENDBRANCH   6  13
ENDBRANCH   1   9
BRANCH   4  16
ATOM     16  N1  UNL     1      19.893   9.948  37.392  0.00  0.00    -0.240 N 
ATOM     17  C13 UNL     1      20.524   8.945  36.581  0.00  0.00    +0.310 C 
ATOM     18  O1  UNL     1      19.854   7.979  36.126  0.00  0.00    -0.252 OA
ATOM     19  N2  UNL     1      21.941   9.009  36.357  0.00  0.00    -0.269 N 
ATOM     20  H14 UNL     1      20.505  10.595  37.937  0.00  0.00    +0.159 HD
ATOM     21  H15 UNL     1      22.502   9.635  36.978  0.00  0.00    +0.156 HD
BRANCH  19  22
ATOM     22  C14 UNL     1      22.646   8.189  35.409  0.00  0.00    +0.035 A 
ATOM     23  C15 UNL     1      23.353   7.064  35.863  0.00  0.00    +0.026 A 
ATOM     24  C16 UNL     1      24.065   6.264  34.964  0.00  0.00    +0.040 A 
ATOM     25  C17 UNL     1      24.091   6.590  33.605  0.00  0.00    +0.124 A 
ATOM     26  F1  UNL     1      24.784   5.815  32.735  0.00  0.00    -0.205 F 
ATOM     27  C18 UNL     1      23.410   7.721  33.146  0.00  0.00    +0.040 A 
ATOM     28  C19 UNL     1      22.696   8.523  34.042  0.00  0.00    +0.026 A 
ENDBRANCH  19  22
ENDBRANCH   4  16
TORSDOF 4
ENDMDL
MODEL 7
REMARK VINA RESULT:    -6.586     12.888     14.515
REMARK INTER + INTRA:          -8.926
REMARK INTER:                  -8.303
REMARK INTRA:                  -0.623
REMARK UNBOUND:                -0.799
REMARK  Name = /home/qwerty/github/datacon2025hack/step_04_hit_selection/docking/ligands/lig_638.pdb
REMARK  7 active torsions:
REMARK  status: ('A' for Active; 'I' for Inactive)
REMARK    1  A    between atoms: C1_1  and  C2_2
REMARK    2  A    between atoms: C2_2  and  C3_3
REMARK    3  A    between atoms: C2_2  and  C4_4
REMARK    4  A    between atoms: C2_2  and  C5_5
REMARK    5  A    between atoms: C8_8  and  C9_9
REMARK    6  A    between atoms: C12_12  and  N1_13
REMARK    7  A    between atoms: N2_16  and  C14_17
REMARK                            x       y       z     vdW  Elec       q    Type
REMARK                         _______ _______ _______ _____ _____    ______ ____
ROOT
ATOM      1  C9  UNL     1      20.713   3.441  24.153  0.00  0.00    +0.137 A 
ATOM      2  C10 UNL     1      19.539   3.193  23.456  0.00  0.00    +0.052 A 
ATOM      3  C11 UNL     1      19.529   4.070  22.393  0.00  0.00    +0.067 A 
ATOM      4  C12 UNL     1      20.702   4.796  22.504  0.00  0.00    +0.194 A 
ATOM      5  O2  UNL     1      21.380   4.406  23.558  0.00  0.00    -0.441 OA
ENDROOT
BRANCH   1   9
ATOM      6  C5  UNL     1      22.060   1.413  27.728  0.00  0.00    -0.042 A 
ATOM      7  C6  UNL     1      22.692   2.594  27.283  0.00  0.00    +0.005 A 
ATOM      8  C7  UNL     1      22.264   3.256  26.130  0.00  0.00    +0.012 A 
ATOM      9  C8  UNL     1      21.187   2.759  25.380  0.00  0.00    +0.017 A 
ATOM     10  C20 UNL     1      20.550   1.586  25.811  0.00  0.00    +0.012 A 
ATOM     11  C21 UNL     1      20.976   0.922  26.964  0.00  0.00    +0.005 A 
BRANCH   6  13
ATOM     12  C1  UNL     1      21.761   1.106  30.270  0.00  0.00    +0.015 C 
ATOM     13  C2  UNL     1      22.564   0.714  29.007  0.00  0.00    -0.013 C 
ATOM     14  C3  UNL     1      22.450  -0.817  28.836  0.00  0.00    +0.015 C 
ATOM     15  C4  UNL     1      24.041   1.093  29.253  0.00  0.00    +0.015 C 
ENDBRANCH   6  13
ENDBRANCH   1   9
BRANCH   4  16
ATOM     16  N1  UNL     1      21.145   5.856  21.644  0.00  0.00    -0.240 N 
ATOM     17  C13 UNL     1      20.408   7.059  21.377  0.00  0.00    +0.310 C 
ATOM     18  O1  UNL     1      19.197   7.152  21.711  0.00  0.00    -0.252 OA
ATOM     19  N2  UNL     1      21.042   8.129  20.658  0.00  0.00    -0.269 N 
ATOM     20  H14 UNL     1      22.060   5.723  21.158  0.00  0.00    +0.159 HD
ATOM     21  H15 UNL     1      21.926   7.911  20.146  0.00  0.00    +0.156 HD
BRANCH  19  22
ATOM     22  C14 UNL     1      20.482   9.445  20.510  0.00  0.00    +0.035 A 
ATOM     23  C15 UNL     1      19.650   9.720  19.413  0.00  0.00    +0.026 A 
ATOM     24  C16 UNL     1      19.112  10.998  19.235  0.00  0.00    +0.040 A 
ATOM     25  C17 UNL     1      19.413  12.017  20.141  0.00  0.00    +0.124 A 
ATOM     26  F1  UNL     1      18.892  13.257  19.966  0.00  0.00    -0.205 F 
ATOM     27  C18 UNL     1      20.259  11.761  21.224  0.00  0.00    +0.040 A 
ATOM     28  C19 UNL     1      20.798  10.484  21.406  0.00  0.00    +0.026 A 
ENDBRANCH  19  22
ENDBRANCH   4  16
TORSDOF 4
ENDMDL
MODEL 8
REMARK VINA RESULT:    -6.530      9.731     13.287
REMARK INTER + INTRA:          -8.857
REMARK INTER:                  -8.028
REMARK INTRA:                  -0.828
REMARK UNBOUND:                -0.799
REMARK  Name = /home/qwerty/github/datacon2025hack/step_04_hit_selection/docking/ligands/lig_638.pdb
REMARK  7 active torsions:
REMARK  status: ('A' for Active; 'I' for Inactive)
REMARK    1  A    between atoms: C1_1  and  C2_2
REMARK    2  A    between atoms: C2_2  and  C3_3
REMARK    3  A    between atoms: C2_2  and  C4_4
REMARK    4  A    between atoms: C2_2  and  C5_5
REMARK    5  A    between atoms: C8_8  and  C9_9
REMARK    6  A    between atoms: C12_12  and  N1_13
REMARK    7  A    between atoms: N2_16  and  C14_17
REMARK                            x       y       z     vdW  Elec       q    Type
REMARK                         _______ _______ _______ _____ _____    ______ ____
ROOT
ATOM      1  C9  UNL     1      11.701  13.401  29.420  0.00  0.00    +0.137 A 
ATOM      2  C10 UNL     1      11.610  14.530  28.618  0.00  0.00    +0.052 A 
ATOM      3  C11 UNL     1      11.732  14.089  27.318  0.00  0.00    +0.067 A 
ATOM      4  C12 UNL     1      11.884  12.717  27.407  0.00  0.00    +0.194 A 
ATOM      5  O2  UNL     1      11.868  12.339  28.664  0.00  0.00    -0.441 OA
ENDROOT
BRANCH   1   9
ATOM      6  C5  UNL     1      11.506  13.293  33.740  0.00  0.00    -0.042 A 
ATOM      7  C6  UNL     1      11.320  12.120  32.976  0.00  0.00    +0.005 A 
ATOM      8  C7  UNL     1      11.381  12.145  31.581  0.00  0.00    +0.012 A 
ATOM      9  C8  UNL     1      11.631  13.347  30.899  0.00  0.00    +0.017 A 
ATOM     10  C20 UNL     1      11.818  14.519  31.645  0.00  0.00    +0.012 A 
ATOM     11  C21 UNL     1      11.757  14.496  33.042  0.00  0.00    +0.005 A 
BRANCH   6  13
ATOM     12  C1  UNL     1      12.671  13.826  35.977  0.00  0.00    +0.015 C 
ATOM     13  C2  UNL     1      11.430  13.221  35.278  0.00  0.00    -0.013 C 
ATOM     14  C3  UNL     1      10.189  13.997  35.770  0.00  0.00    +0.015 C 
ATOM     15  C4  UNL     1      11.317  11.745  35.720  0.00  0.00    +0.015 C 
ENDBRANCH   6  13
ENDBRANCH   1   9
BRANCH   4  16
ATOM     16  N1  UNL     1      12.073  11.797  26.321  0.00  0.00    -0.240 N 
ATOM     17  C13 UNL     1      11.032  11.008  25.725  0.00  0.00    +0.310 C 
ATOM     18  O1  UNL     1       9.909  10.904  26.287  0.00  0.00    -0.252 OA
ATOM     19  N2  UNL     1      11.307  10.275  24.520  0.00  0.00    -0.269 N 
ATOM     20  H14 UNL     1      13.046  11.679  25.961  0.00  0.00    +0.159 HD
ATOM     21  H15 UNL     1      12.307  10.145  24.250  0.00  0.00    +0.156 HD
BRANCH  19  22
ATOM     22  C14 UNL     1      10.301   9.621  23.727  0.00  0.00    +0.035 A 
ATOM     23  C15 UNL     1       9.622  10.352  22.739  0.00  0.00    +0.026 A 
ATOM     24  C16 UNL     1       8.624   9.745  21.969  0.00  0.00    +0.040 A 
ATOM     25  C17 UNL     1       8.284   8.408  22.192  0.00  0.00    +0.124 A 
ATOM     26  F1  UNL     1       7.315   7.822  21.446  0.00  0.00    -0.205 F 
ATOM     27  C18 UNL     1       8.938   7.679  23.189  0.00  0.00    +0.040 A 
ATOM     28  C19 UNL     1       9.937   8.281  23.959  0.00  0.00    +0.026 A 
ENDBRANCH  19  22
ENDBRANCH   4  16
TORSDOF 4
ENDMDL
MODEL 9
REMARK VINA RESULT:    -6.487     14.371     17.935
REMARK INTER + INTRA:          -8.803
REMARK INTER:                  -8.083
REMARK INTRA:                  -0.720
REMARK UNBOUND:                -0.799
REMARK  Name = /home/qwerty/github/datacon2025hack/step_04_hit_selection/docking/ligands/lig_638.pdb
REMARK  7 active torsions:
REMARK  status: ('A' for Active; 'I' for Inactive)
REMARK    1  A    between atoms: C1_1  and  C2_2
REMARK    2  A    between atoms: C2_2  and  C3_3
REMARK    3  A    between atoms: C2_2  and  C4_4
REMARK    4  A    between atoms: C2_2  and  C5_5
REMARK    5  A    between atoms: C8_8  and  C9_9
REMARK    6  A    between atoms: C12_12  and  N1_13
REMARK    7  A    between atoms: N2_16  and  C14_17
REMARK                            x       y       z     vdW  Elec       q    Type
REMARK                         _______ _______ _______ _____ _____    ______ ____
ROOT
ATOM      1  C9  UNL     1       9.749   9.311  22.453  0.00  0.00    +0.137 A 
ATOM      2  C10 UNL     1       9.819  10.141  21.343  0.00  0.00    +0.052 A 
ATOM      3  C11 UNL     1      10.100   9.323  20.269  0.00  0.00    +0.067 A 
ATOM      4  C12 UNL     1      10.178   8.044  20.790  0.00  0.00    +0.194 A 
ATOM      5  O2  UNL     1       9.972   8.068  22.086  0.00  0.00    -0.441 OA
ENDROOT
BRANCH   1   9
ATOM      6  C5  UNL     1       8.897  10.470  26.532  0.00  0.00    -0.042 A 
ATOM      7  C6  UNL     1      10.219  10.481  26.037  0.00  0.00    +0.005 A 
ATOM      8  C7  UNL     1      10.504  10.108  24.720  0.00  0.00    +0.012 A 
ATOM      9  C8  UNL     1       9.474   9.711  23.853  0.00  0.00    +0.017 A 
ATOM     10  C20 UNL     1       8.157   9.696  24.332  0.00  0.00    +0.012 A 
ATOM     11  C21 UNL     1       7.869  10.069  25.648  0.00  0.00    +0.005 A 
BRANCH   6  13
ATOM     12  C1  UNL     1       7.487  10.080  28.655  0.00  0.00    +0.015 C 
ATOM     13  C2  UNL     1       8.626  10.890  27.991  0.00  0.00    -0.013 C 
ATOM     14  C3  UNL     1       9.904  10.678  28.833  0.00  0.00    +0.015 C 
ATOM     15  C4  UNL     1       8.228  12.381  28.033  0.00  0.00    +0.015 C 
ENDBRANCH   6  13
ENDBRANCH   1   9
BRANCH   4  16
ATOM     16  N1  UNL     1      10.474   6.837  20.072  0.00  0.00    -0.240 N 
ATOM     17  C13 UNL     1      11.622   6.006  20.303  0.00  0.00    +0.310 C 
ATOM     18  O1  UNL     1      12.580   6.422  21.008  0.00  0.00    -0.252 OA
ATOM     19  N2  UNL     1      11.705   4.724  19.659  0.00  0.00    -0.269 N 
ATOM     20  H14 UNL     1       9.815   6.563  19.310  0.00  0.00    +0.159 HD
ATOM     21  H15 UNL     1      11.053   4.539  18.864  0.00  0.00    +0.156 HD
BRANCH  19  22
ATOM     22  C14 UNL     1      12.696   3.728  19.968  0.00  0.00    +0.035 A 
ATOM     23  C15 UNL     1      12.341   2.632  20.771  0.00  0.00    +0.026 A 
ATOM     24  C16 UNL     1      13.291   1.662  21.105  0.00  0.00    +0.040 A 
ATOM     25  C17 UNL     1      14.608   1.787  20.653  0.00  0.00    +0.124 A 
ATOM     26  F1  UNL     1      15.529   0.847  20.980  0.00  0.00    -0.205 F 
ATOM     27  C18 UNL     1      14.976   2.887  19.873  0.00  0.00    +0.040 A 
ATOM     28  C19 UNL     1      14.029   3.858  19.536  0.00  0.00    +0.026 A 
ENDBRANCH  19  22
ENDBRANCH   4  16
TORSDOF 4
ENDMDL
