MODEL 1
REMARK VINA RESULT:    -8.734      0.000      0.000
REMARK INTER + INTRA:         -11.791
REMARK INTER:                 -11.031
REMARK INTRA:                  -0.760
REMARK UNBOUND:                -0.760
REMARK  Name = /home/qwerty/github/datacon2025hack/step_04_hit_selection/docking/ligands/lig_120.pdb
REMARK  9 active torsions:
REMARK  status: ('A' for Active; 'I' for Inactive)
REMARK    1  A    between atoms: C1_1  and  O1_2
REMARK    2  A    between atoms: O1_2  and  C2_3
REMARK    3  A    between atoms: C4_5  and  C5_6
REMARK    4  A    between atoms: C9_12  and  C10_13
REMARK    5  A    between atoms: C13_16  and  C14_17
REMARK    6  A    between atoms: C15_19  and  C16_20
REMARK    7  A    between atoms: C17_21  and  C18_22
REMARK    8  A    between atoms: C19_23  and  C20_24
REMARK    9  A    between atoms: C26_35  and  O2_36
REMARK                            x       y       z     vdW  Elec       q    Type
REMARK                         _______ _______ _______ _____ _____    ______ ____
ROOT
ATOM      1  C5  UNL     1      11.975  13.747  31.747  0.00  0.00    +0.090 A 
ATOM      2  C6  UNL     1      12.787  14.828  31.295  0.00  0.00    +0.141 A 
ATOM      3  N1  UNL     1      12.735  15.228  29.988  0.00  0.00    -0.234 NA
ATOM      4  C7  UNL     1      11.900  14.574  29.146  0.00  0.00    +0.157 A 
ATOM      5  N2  UNL     1      11.706  14.830  27.845  0.00  0.00    -0.344 N 
ATOM      6  C8  UNL     1      10.771  13.937  27.436  0.00  0.00    +0.096 A 
ATOM      7  C9  UNL     1      10.373  13.113  28.498  0.00  0.00    +0.045 A 
ATOM      8  C23 UNL     1      11.118  13.551  29.572  0.00  0.00    +0.117 A 
ATOM      9  N8  UNL     1      11.137  13.127  30.858  0.00  0.00    -0.241 NA
ATOM     10  H6  UNL     1      12.172  15.565  27.268  0.00  0.00    +0.167 HD
ENDROOT
BRANCH   7  11
ATOM     11  C10 UNL     1       9.378  12.019  28.487  0.00  0.00    +0.075 A 
ATOM     12  C11 UNL     1       9.145  11.251  27.321  0.00  0.00    +0.040 A 
ATOM     13  C12 UNL     1       8.185  10.242  27.401  0.00  0.00    +0.034 A 
ATOM     14  C13 UNL     1       7.690   9.312  26.498  0.00  0.00    +0.137 A 
ATOM     15  N5  UNL     1       6.746   8.566  27.124  0.00  0.00    -0.170 NA
ATOM     16  N6  UNL     1       6.635   8.994  28.376  0.00  0.00    -0.275 N 
ATOM     17  C21 UNL     1       7.499  10.005  28.553  0.00  0.00    +0.085 A 
ATOM     18  C22 UNL     1       7.728  10.759  29.696  0.00  0.00    +0.139 A 
ATOM     19  N7  UNL     1       8.664  11.750  29.630  0.00  0.00    -0.253 NA
ATOM     20  H18 UNL     1       5.980   8.596  29.084  0.00  0.00    +0.189 HD
BRANCH  14  21
ATOM     21  C14 UNL     1       8.075   9.115  25.090  0.00  0.00    +0.181 A 
ATOM     22  N3  UNL     1       7.809  10.064  24.159  0.00  0.00    -0.231 NA
ATOM     23  C15 UNL     1       8.153   9.906  22.854  0.00  0.00    +0.045 A 
ATOM     24  C16 UNL     1       7.828  11.016  21.898  0.00  0.00    +0.066 C 
ATOM     25  C17 UNL     1       8.782   8.709  22.438  0.00  0.00    -0.008 A 
ATOM     26  C18 UNL     1       9.196   8.500  20.999  0.00  0.00    +0.047 C 
ATOM     27  C19 UNL     1       9.084   7.750  23.433  0.00  0.00    +0.045 A 
ATOM     28  C20 UNL     1       9.795   6.466  23.116  0.00  0.00    +0.066 C 
ATOM     29  N4  UNL     1       8.711   7.977  24.720  0.00  0.00    -0.231 NA
ENDBRANCH  14  21
ENDBRANCH   7  11
BRANCH   1  32
ATOM     30  C2  UNL     1      12.777  13.511  35.473  0.00  0.00    +0.162 A 
ATOM     31  C3  UNL     1      12.766  13.956  34.135  0.00  0.00    +0.059 A 
ATOM     32  C4  UNL     1      11.995  13.293  33.161  0.00  0.00    +0.006 A 
ATOM     33  C24 UNL     1      11.249  12.164  33.540  0.00  0.00    +0.014 A 
ATOM     34  C25 UNL     1      11.256  11.720  34.862  0.00  0.00    +0.050 A 
ATOM     35  C26 UNL     1      12.013  12.387  35.830  0.00  0.00    +0.158 A 
BRANCH  30  37
ATOM     36  C1  UNL     1      14.367  15.289  36.239  0.00  0.00    +0.277 C 
ATOM     37  O1  UNL     1      13.533  14.156  36.465  0.00  0.00    -0.491 OA
ENDBRANCH  30  37
BRANCH  35  38
ATOM     38  O2  UNL     1      11.992  11.915  37.142  0.00  0.00    -0.503 OA
ATOM     39  H22 UNL     1      11.235  12.129  37.780  0.00  0.00    +0.292 HD
ENDBRANCH  35  38
ENDBRANCH   1  32
TORSDOF 5
ENDMDL
MODEL 2
REMARK VINA RESULT:    -8.688      0.084      1.443
REMARK INTER + INTRA:         -11.733
REMARK INTER:                 -10.973
REMARK INTRA:                  -0.760
REMARK UNBOUND:                -0.760
REMARK  Name = /home/qwerty/github/datacon2025hack/step_04_hit_selection/docking/ligands/lig_120.pdb
REMARK  9 active torsions:
REMARK  status: ('A' for Active; 'I' for Inactive)
REMARK    1  A    between atoms: C1_1  and  O1_2
REMARK    2  A    between atoms: O1_2  and  C2_3
REMARK    3  A    between atoms: C4_5  and  C5_6
REMARK    4  A    between atoms: C9_12  and  C10_13
REMARK    5  A    between atoms: C13_16  and  C14_17
REMARK    6  A    between atoms: C15_19  and  C16_20
REMARK    7  A    between atoms: C17_21  and  C18_22
REMARK    8  A    between atoms: C19_23  and  C20_24
REMARK    9  A    between atoms: C26_35  and  O2_36
REMARK                            x       y       z     vdW  Elec       q    Type
REMARK                         _______ _______ _______ _____ _____    ______ ____
ROOT
ATOM      1  C5  UNL     1      12.010  13.728  31.737  0.00  0.00    +0.090 A 
ATOM      2  C6  UNL     1      12.803  14.826  31.291  0.00  0.00    +0.141 A 
ATOM      3  N1  UNL     1      12.727  15.246  29.992  0.00  0.00    -0.234 NA
ATOM      4  C7  UNL     1      11.888  14.597  29.152  0.00  0.00    +0.157 A 
ATOM      5  N2  UNL     1      11.672  14.872  27.858  0.00  0.00    -0.344 N 
ATOM      6  C8  UNL     1      10.741  13.975  27.448  0.00  0.00    +0.096 A 
ATOM      7  C9  UNL     1      10.368  13.129  28.501  0.00  0.00    +0.045 A 
ATOM      8  C23 UNL     1      11.123  13.558  29.572  0.00  0.00    +0.117 A 
ATOM      9  N8  UNL     1      11.166  13.114  30.850  0.00  0.00    -0.241 NA
ATOM     10  H6  UNL     1      12.122  15.621  27.286  0.00  0.00    +0.167 HD
ENDROOT
BRANCH   7  11
ATOM     11  C10 UNL     1       9.385  12.024  28.486  0.00  0.00    +0.075 A 
ATOM     12  C11 UNL     1       9.156  11.262  27.315  0.00  0.00    +0.040 A 
ATOM     13  C12 UNL     1       8.208  10.242  27.392  0.00  0.00    +0.034 A 
ATOM     14  C13 UNL     1       7.719   9.313  26.485  0.00  0.00    +0.137 A 
ATOM     15  N5  UNL     1       6.786   8.552  27.109  0.00  0.00    -0.170 NA
ATOM     16  N6  UNL     1       6.677   8.969  28.365  0.00  0.00    -0.275 N 
ATOM     17  C21 UNL     1       7.530   9.988  28.546  0.00  0.00    +0.085 A 
ATOM     18  C22 UNL     1       7.756  10.736  29.693  0.00  0.00    +0.139 A 
ATOM     19  N7  UNL     1       8.681  11.738  29.631  0.00  0.00    -0.253 NA
ATOM     20  H18 UNL     1       6.029   8.557  29.073  0.00  0.00    +0.189 HD
BRANCH  14  21
ATOM     21  C14 UNL     1       8.100   9.131  25.073  0.00  0.00    +0.181 A 
ATOM     22  N3  UNL     1       8.703   7.991  24.658  0.00  0.00    -0.231 NA
ATOM     23  C15 UNL     1       9.064   7.800  23.363  0.00  0.00    +0.045 A 
ATOM     24  C16 UNL     1       9.716   6.499  22.995  0.00  0.00    +0.066 C 
ATOM     25  C17 UNL     1       8.833   8.825  22.415  0.00  0.00    -0.008 A 
ATOM     26  C18 UNL     1       9.204   8.646  20.960  0.00  0.00    +0.047 C 
ATOM     27  C19 UNL     1       8.167   9.990  22.863  0.00  0.00    +0.045 A 
ATOM     28  C20 UNL     1       7.826  11.120  21.936  0.00  0.00    +0.066 C 
ATOM     29  N4  UNL     1       7.834  10.112  24.175  0.00  0.00    -0.231 NA
ENDBRANCH  14  21
ENDBRANCH   7  11
BRANCH   1  32
ATOM     30  C2  UNL     1      12.884  13.429  35.442  0.00  0.00    +0.162 A 
ATOM     31  C3  UNL     1      12.849  13.895  34.112  0.00  0.00    +0.059 A 
ATOM     32  C4  UNL     1      12.055  13.251  33.143  0.00  0.00    +0.006 A 
ATOM     33  C24 UNL     1      11.312  12.121  33.518  0.00  0.00    +0.014 A 
ATOM     34  C25 UNL     1      11.343  11.655  34.833  0.00  0.00    +0.050 A 
ATOM     35  C26 UNL     1      12.121  12.302  35.796  0.00  0.00    +0.158 A 
BRANCH  30  37
ATOM     36  C1  UNL     1      14.385  15.268  36.243  0.00  0.00    +0.277 C 
ATOM     37  O1  UNL     1      13.663  14.054  36.429  0.00  0.00    -0.491 OA
ENDBRANCH  30  37
BRANCH  35  38
ATOM     38  O2  UNL     1      12.124  11.810  37.101  0.00  0.00    -0.503 OA
ATOM     39  H22 UNL     1      12.906  11.949  37.728  0.00  0.00    +0.292 HD
ENDBRANCH  35  38
ENDBRANCH   1  32
TORSDOF 5
ENDMDL
MODEL 3
REMARK VINA RESULT:    -8.611     12.511     14.168
REMARK INTER + INTRA:         -11.636
REMARK INTER:                 -10.753
REMARK INTRA:                  -0.883
REMARK UNBOUND:                -0.760
REMARK  Name = /home/qwerty/github/datacon2025hack/step_04_hit_selection/docking/ligands/lig_120.pdb
REMARK  9 active torsions:
REMARK  status: ('A' for Active; 'I' for Inactive)
REMARK    1  A    between atoms: C1_1  and  O1_2
REMARK    2  A    between atoms: O1_2  and  C2_3
REMARK    3  A    between atoms: C4_5  and  C5_6
REMARK    4  A    between atoms: C9_12  and  C10_13
REMARK    5  A    between atoms: C13_16  and  C14_17
REMARK    6  A    between atoms: C15_19  and  C16_20
REMARK    7  A    between atoms: C17_21  and  C18_22
REMARK    8  A    between atoms: C19_23  and  C20_24
REMARK    9  A    between atoms: C26_35  and  O2_36
REMARK                            x       y       z     vdW  Elec       q    Type
REMARK                         _______ _______ _______ _____ _____    ______ ____
ROOT
ATOM      1  C5  UNL     1      21.754   4.284  32.260  0.00  0.00    +0.090 A 
ATOM      2  C6  UNL     1      21.466   3.525  33.432  0.00  0.00    +0.141 A 
ATOM      3  N1  UNL     1      21.088   2.215  33.327  0.00  0.00    -0.234 NA
ATOM      4  C7  UNL     1      20.995   1.667  32.093  0.00  0.00    +0.157 A 
ATOM      5  N2  UNL     1      20.654   0.405  31.796  0.00  0.00    -0.344 N 
ATOM      6  C8  UNL     1      20.722   0.321  30.444  0.00  0.00    +0.096 A 
ATOM      7  C9  UNL     1      21.113   1.547  29.889  0.00  0.00    +0.045 A 
ATOM      8  C23 UNL     1      21.277   2.380  30.974  0.00  0.00    +0.117 A 
ATOM      9  N8  UNL     1      21.659   3.678  31.034  0.00  0.00    -0.241 NA
ATOM     10  H6  UNL     1      20.396  -0.355  32.464  0.00  0.00    +0.167 HD
ENDROOT
BRANCH   7  11
ATOM     11  C10 UNL     1      21.313   1.885  28.463  0.00  0.00    +0.075 A 
ATOM     12  C11 UNL     1      20.391   1.468  27.474  0.00  0.00    +0.040 A 
ATOM     13  C12 UNL     1      20.663   1.829  26.154  0.00  0.00    +0.034 A 
ATOM     14  C13 UNL     1      20.019   1.609  24.945  0.00  0.00    +0.137 A 
ATOM     15  N5  UNL     1      20.744   2.195  23.959  0.00  0.00    -0.170 NA
ATOM     16  N6  UNL     1      21.809   2.768  24.506  0.00  0.00    -0.275 N 
ATOM     17  C21 UNL     1      21.770   2.554  25.829  0.00  0.00    +0.085 A 
ATOM     18  C22 UNL     1      22.673   2.962  26.801  0.00  0.00    +0.139 A 
ATOM     19  N7  UNL     1      22.419   2.614  28.096  0.00  0.00    -0.253 NA
ATOM     20  H18 UNL     1      22.539   3.293  23.975  0.00  0.00    +0.189 HD
BRANCH  14  21
ATOM     21  C14 UNL     1      18.766   0.874  24.700  0.00  0.00    +0.181 A 
ATOM     22  N3  UNL     1      18.705  -0.470  24.871  0.00  0.00    -0.231 NA
ATOM     23  C15 UNL     1      17.562  -1.170  24.651  0.00  0.00    +0.045 A 
ATOM     24  C16 UNL     1      17.588  -2.654  24.878  0.00  0.00    +0.066 C 
ATOM     25  C17 UNL     1      16.403  -0.493  24.205  0.00  0.00    -0.008 A 
ATOM     26  C18 UNL     1      15.106  -1.233  23.965  0.00  0.00    +0.047 C 
ATOM     27  C19 UNL     1      16.479   0.913  24.071  0.00  0.00    +0.045 A 
ATOM     28  C20 UNL     1      15.298   1.741  23.653  0.00  0.00    +0.066 C 
ATOM     29  N4  UNL     1      17.657   1.548  24.310  0.00  0.00    -0.231 NA
ENDBRANCH  14  21
ENDBRANCH   7  11
BRANCH   1  32
ATOM     30  C2  UNL     1      22.687   7.728  33.620  0.00  0.00    +0.162 A 
ATOM     31  C3  UNL     1      22.284   6.378  33.566  0.00  0.00    +0.059 A 
ATOM     32  C4  UNL     1      22.181   5.705  32.333  0.00  0.00    +0.006 A 
ATOM     33  C24 UNL     1      22.466   6.408  31.151  0.00  0.00    +0.014 A 
ATOM     34  C25 UNL     1      22.865   7.744  31.198  0.00  0.00    +0.050 A 
ATOM     35  C26 UNL     1      22.980   8.406  32.423  0.00  0.00    +0.158 A 
BRANCH  30  37
ATOM     36  C1  UNL     1      21.707   8.947  35.575  0.00  0.00    +0.277 C 
ATOM     37  O1  UNL     1      22.804   8.422  34.835  0.00  0.00    -0.491 OA
ENDBRANCH  30  37
BRANCH  35  38
ATOM     38  O2  UNL     1      23.385   9.740  32.431  0.00  0.00    -0.503 OA
ATOM     39  H22 UNL     1      23.975  10.121  33.161  0.00  0.00    +0.292 HD
ENDBRANCH  35  38
ENDBRANCH   1  32
TORSDOF 5
ENDMDL
MODEL 4
REMARK VINA RESULT:    -8.597      4.134     10.600
REMARK INTER + INTRA:         -11.618
REMARK INTER:                 -10.835
REMARK INTRA:                  -0.783
REMARK UNBOUND:                -0.760
REMARK  Name = /home/qwerty/github/datacon2025hack/step_04_hit_selection/docking/ligands/lig_120.pdb
REMARK  9 active torsions:
REMARK  status: ('A' for Active; 'I' for Inactive)
REMARK    1  A    between atoms: C1_1  and  O1_2
REMARK    2  A    between atoms: O1_2  and  C2_3
REMARK    3  A    between atoms: C4_5  and  C5_6
REMARK    4  A    between atoms: C9_12  and  C10_13
REMARK    5  A    between atoms: C13_16  and  C14_17
REMARK    6  A    between atoms: C15_19  and  C16_20
REMARK    7  A    between atoms: C17_21  and  C18_22
REMARK    8  A    between atoms: C19_23  and  C20_24
REMARK    9  A    between atoms: C26_35  and  O2_36
REMARK                            x       y       z     vdW  Elec       q    Type
REMARK                         _______ _______ _______ _____ _____    ______ ____
ROOT
ATOM      1  C5  UNL     1       8.539   9.860  25.293  0.00  0.00    +0.090 A 
ATOM      2  C6  UNL     1       7.529   8.914  25.636  0.00  0.00    +0.141 A 
ATOM      3  N1  UNL     1       7.059   8.844  26.918  0.00  0.00    -0.234 NA
ATOM      4  C7  UNL     1       7.576   9.688  27.842  0.00  0.00    +0.157 A 
ATOM      5  N2  UNL     1       7.234   9.774  29.135  0.00  0.00    -0.344 N 
ATOM      6  C8  UNL     1       8.000  10.769  29.647  0.00  0.00    +0.096 A 
ATOM      7  C9  UNL     1       8.830  11.315  28.658  0.00  0.00    +0.045 A 
ATOM      8  C23 UNL     1       8.530  10.597  27.521  0.00  0.00    +0.117 A 
ATOM      9  N8  UNL     1       9.019  10.702  26.262  0.00  0.00    -0.241 NA
ATOM     10  H6  UNL     1       6.525   9.199  29.642  0.00  0.00    +0.167 HD
ENDROOT
BRANCH   7  11
ATOM     11  C10 UNL     1       9.809  12.416  28.789  0.00  0.00    +0.075 A 
ATOM     12  C11 UNL     1      10.454  12.682  30.021  0.00  0.00    +0.040 A 
ATOM     13  C12 UNL     1      11.360  13.742  30.052  0.00  0.00    +0.034 A 
ATOM     14  C13 UNL     1      12.158  14.296  31.042  0.00  0.00    +0.137 A 
ATOM     15  N5  UNL     1      12.849  15.334  30.508  0.00  0.00    -0.170 NA
ATOM     16  N6  UNL     1      12.512  15.447  29.229  0.00  0.00    -0.275 N 
ATOM     17  C21 UNL     1      11.614  14.492  28.943  0.00  0.00    +0.085 A 
ATOM     18  C22 UNL     1      10.982  14.229  27.736  0.00  0.00    +0.139 A 
ATOM     19  N7  UNL     1      10.093  13.195  27.693  0.00  0.00    -0.253 NA
ATOM     20  H18 UNL     1      12.895  16.165  28.575  0.00  0.00    +0.189 HD
BRANCH  14  21
ATOM     21  C14 UNL     1      12.282  13.881  32.451  0.00  0.00    +0.181 A 
ATOM     22  N3  UNL     1      13.388  13.233  32.889  0.00  0.00    -0.231 NA
ATOM     23  C15 UNL     1      13.525  12.839  34.182  0.00  0.00    +0.045 A 
ATOM     24  C16 UNL     1      14.792  12.137  34.577  0.00  0.00    +0.066 C 
ATOM     25  C17 UNL     1      12.478  13.085  35.101  0.00  0.00    -0.008 A 
ATOM     26  C18 UNL     1      12.598  12.678  36.553  0.00  0.00    +0.047 C 
ATOM     27  C19 UNL     1      11.350  13.797  34.631  0.00  0.00    +0.045 A 
ATOM     28  C20 UNL     1      10.202  14.157  35.529  0.00  0.00    +0.066 C 
ATOM     29  N4  UNL     1      11.282  14.161  33.323  0.00  0.00    -0.231 NA
ENDBRANCH  14  21
ENDBRANCH   7  11
BRANCH   1  32
ATOM     30  C2  UNL     1      10.933  10.166  22.334  0.00  0.00    +0.162 A 
ATOM     31  C3  UNL     1      10.448  10.053  23.653  0.00  0.00    +0.059 A 
ATOM     32  C4  UNL     1       9.065   9.976  23.909  0.00  0.00    +0.006 A 
ATOM     33  C24 UNL     1       8.172  10.034  22.827  0.00  0.00    +0.014 A 
ATOM     34  C25 UNL     1       8.646  10.146  21.520  0.00  0.00    +0.050 A 
ATOM     35  C26 UNL     1      10.019  10.209  21.267  0.00  0.00    +0.158 A 
BRANCH  30  37
ATOM     36  C1  UNL     1      13.182   9.117  21.995  0.00  0.00    +0.277 C 
ATOM     37  O1  UNL     1      12.306  10.239  22.050  0.00  0.00    -0.491 OA
ENDBRANCH  30  37
BRANCH  35  38
ATOM     38  O2  UNL     1      10.455  10.317  19.947  0.00  0.00    -0.503 OA
ATOM     39  H22 UNL     1      10.480   9.521  19.320  0.00  0.00    +0.292 HD
ENDBRANCH  35  38
ENDBRANCH   1  32
TORSDOF 5
ENDMDL
MODEL 5
REMARK VINA RESULT:    -8.520     13.097     16.884
REMARK INTER + INTRA:         -11.521
REMARK INTER:                 -10.718
REMARK INTRA:                  -0.803
REMARK UNBOUND:                -0.760
REMARK  Name = /home/qwerty/github/datacon2025hack/step_04_hit_selection/docking/ligands/lig_120.pdb
REMARK  9 active torsions:
REMARK  status: ('A' for Active; 'I' for Inactive)
REMARK    1  A    between atoms: C1_1  and  O1_2
REMARK    2  A    between atoms: O1_2  and  C2_3
REMARK    3  A    between atoms: C4_5  and  C5_6
REMARK    4  A    between atoms: C9_12  and  C10_13
REMARK    5  A    between atoms: C13_16  and  C14_17
REMARK    6  A    between atoms: C15_19  and  C16_20
REMARK    7  A    between atoms: C17_21  and  C18_22
REMARK    8  A    between atoms: C19_23  and  C20_24
REMARK    9  A    between atoms: C26_35  and  O2_36
REMARK                            x       y       z     vdW  Elec       q    Type
REMARK                         _______ _______ _______ _____ _____    ______ ____
ROOT
ATOM      1  C5  UNL     1      18.976   0.562  25.588  0.00  0.00    +0.090 A 
ATOM      2  C6  UNL     1      19.551   1.071  24.386  0.00  0.00    +0.141 A 
ATOM      3  N1  UNL     1      20.652   1.879  24.439  0.00  0.00    -0.234 NA
ATOM      4  C7  UNL     1      21.174   2.180  25.652  0.00  0.00    +0.157 A 
ATOM      5  N2  UNL     1      22.249   2.942  25.899  0.00  0.00    -0.344 N 
ATOM      6  C8  UNL     1      22.395   2.934  27.248  0.00  0.00    +0.096 A 
ATOM      7  C9  UNL     1      21.397   2.156  27.851  0.00  0.00    +0.045 A 
ATOM      8  C23 UNL     1      20.637   1.693  26.799  0.00  0.00    +0.117 A 
ATOM      9  N8  UNL     1      19.550   0.885  26.789  0.00  0.00    -0.241 NA
ATOM     10  H6  UNL     1      22.851   3.433  25.202  0.00  0.00    +0.167 HD
ENDROOT
BRANCH   7  11
ATOM     11  C10 UNL     1      21.194   1.880  29.290  0.00  0.00    +0.075 A 
ATOM     12  C11 UNL     1      21.484   2.857  30.272  0.00  0.00    +0.040 A 
ATOM     13  C12 UNL     1      21.266   2.508  31.605  0.00  0.00    +0.034 A 
ATOM     14  C13 UNL     1      21.431   3.171  32.812  0.00  0.00    +0.137 A 
ATOM     15  N5  UNL     1      21.061   2.336  33.816  0.00  0.00    -0.170 NA
ATOM     16  N6  UNL     1      20.674   1.184  33.281  0.00  0.00    -0.275 N 
ATOM     17  C21 UNL     1      20.794   1.277  31.948  0.00  0.00    +0.085 A 
ATOM     18  C22 UNL     1      20.510   0.319  30.984  0.00  0.00    +0.139 A 
ATOM     19  N7  UNL     1      20.720   0.649  29.676  0.00  0.00    -0.253 NA
ATOM     20  H18 UNL     1      20.337   0.360  33.826  0.00  0.00    +0.189 HD
BRANCH  14  21
ATOM     21  C14 UNL     1      21.920   4.542  33.039  0.00  0.00    +0.181 A 
ATOM     22  N3  UNL     1      21.063   5.539  33.370  0.00  0.00    -0.231 NA
ATOM     23  C15 UNL     1      21.489   6.811  33.583  0.00  0.00    +0.045 A 
ATOM     24  C16 UNL     1      20.468   7.846  33.957  0.00  0.00    +0.066 C 
ATOM     25  C17 UNL     1      22.861   7.122  33.432  0.00  0.00    -0.008 A 
ATOM     26  C18 UNL     1      23.379   8.521  33.676  0.00  0.00    +0.047 C 
ATOM     27  C19 UNL     1      23.742   6.059  33.124  0.00  0.00    +0.045 A 
ATOM     28  C20 UNL     1      25.223   6.262  32.989  0.00  0.00    +0.066 C 
ATOM     29  N4  UNL     1      23.244   4.810  32.925  0.00  0.00    -0.231 NA
ENDBRANCH  14  21
ENDBRANCH   7  11
BRANCH   1  32
ATOM     30  C2  UNL     1      15.531  -0.909  26.328  0.00  0.00    +0.162 A 
ATOM     31  C3  UNL     1      16.650  -0.052  26.352  0.00  0.00    +0.059 A 
ATOM     32  C4  UNL     1      17.788  -0.330  25.570  0.00  0.00    +0.006 A 
ATOM     33  C24 UNL     1      17.800  -1.489  24.778  0.00  0.00    +0.014 A 
ATOM     34  C25 UNL     1      16.695  -2.341  24.750  0.00  0.00    +0.050 A 
ATOM     35  C26 UNL     1      15.562  -2.057  25.517  0.00  0.00    +0.158 A 
BRANCH  30  37
ATOM     36  C1  UNL     1      13.291   0.160  26.669  0.00  0.00    +0.277 C 
ATOM     37  O1  UNL     1      14.381  -0.654  27.092  0.00  0.00    -0.491 OA
ENDBRANCH  30  37
BRANCH  35  38
ATOM     38  O2  UNL     1      14.476  -2.930  25.460  0.00  0.00    -0.503 OA
ATOM     39  H22 UNL     1      13.595  -2.668  25.036  0.00  0.00    +0.292 HD
ENDBRANCH  35  38
ENDBRANCH   1  32
TORSDOF 5
ENDMDL
MODEL 6
REMARK VINA RESULT:    -8.478     13.331     17.212
REMARK INTER + INTRA:         -11.468
REMARK INTER:                 -10.699
REMARK INTRA:                  -0.769
REMARK UNBOUND:                -0.760
REMARK  Name = /home/qwerty/github/datacon2025hack/step_04_hit_selection/docking/ligands/lig_120.pdb
REMARK  9 active torsions:
REMARK  status: ('A' for Active; 'I' for Inactive)
REMARK    1  A    between atoms: C1_1  and  O1_2
REMARK    2  A    between atoms: O1_2  and  C2_3
REMARK    3  A    between atoms: C4_5  and  C5_6
REMARK    4  A    between atoms: C9_12  and  C10_13
REMARK    5  A    between atoms: C13_16  and  C14_17
REMARK    6  A    between atoms: C15_19  and  C16_20
REMARK    7  A    between atoms: C17_21  and  C18_22
REMARK    8  A    between atoms: C19_23  and  C20_24
REMARK    9  A    between atoms: C26_35  and  O2_36
REMARK                            x       y       z     vdW  Elec       q    Type
REMARK                         _______ _______ _______ _____ _____    ______ ____
ROOT
ATOM      1  C5  UNL     1      19.382   1.082  25.151  0.00  0.00    +0.090 A 
ATOM      2  C6  UNL     1      20.033   1.723  24.056  0.00  0.00    +0.141 A 
ATOM      3  N1  UNL     1      21.118   2.526  24.274  0.00  0.00    -0.234 NA
ATOM      4  C7  UNL     1      21.552   2.692  25.546  0.00  0.00    +0.157 A 
ATOM      5  N2  UNL     1      22.598   3.426  25.950  0.00  0.00    -0.344 N 
ATOM      6  C8  UNL     1      22.652   3.269  27.296  0.00  0.00    +0.096 A 
ATOM      7  C9  UNL     1      21.624   2.425  27.739  0.00  0.00    +0.045 A 
ATOM      8  C23 UNL     1      20.944   2.078  26.592  0.00  0.00    +0.117 A 
ATOM      9  N8  UNL     1      19.869   1.273  26.418  0.00  0.00    -0.241 NA
ATOM     10  H6  UNL     1      23.241   3.994  25.354  0.00  0.00    +0.167 HD
ENDROOT
BRANCH   7  11
ATOM     11  C10 UNL     1      21.327   1.990  29.121  0.00  0.00    +0.075 A 
ATOM     12  C11 UNL     1      21.537   2.853  30.223  0.00  0.00    +0.040 A 
ATOM     13  C12 UNL     1      21.232   2.357  31.491  0.00  0.00    +0.034 A 
ATOM     14  C13 UNL     1      21.306   2.884  32.772  0.00  0.00    +0.137 A 
ATOM     15  N5  UNL     1      20.879   1.941  33.649  0.00  0.00    -0.170 NA
ATOM     16  N6  UNL     1      20.542   0.854  32.965  0.00  0.00    -0.275 N 
ATOM     17  C21 UNL     1      20.752   1.094  31.662  0.00  0.00    +0.085 A 
ATOM     18  C22 UNL     1      20.547   0.249  30.581  0.00  0.00    +0.139 A 
ATOM     19  N7  UNL     1      20.842   0.722  29.335  0.00  0.00    -0.253 NA
ATOM     20  H18 UNL     1      20.179  -0.027  33.391  0.00  0.00    +0.189 HD
BRANCH  14  21
ATOM     21  C14 UNL     1      21.763   4.223  33.182  0.00  0.00    +0.181 A 
ATOM     22  N3  UNL     1      22.999   4.667  32.847  0.00  0.00    -0.231 NA
ATOM     23  C15 UNL     1      23.444   5.897  33.214  0.00  0.00    +0.045 A 
ATOM     24  C16 UNL     1      24.823   6.307  32.787  0.00  0.00    +0.066 C 
ATOM     25  C17 UNL     1      22.612   6.737  33.992  0.00  0.00    -0.008 A 
ATOM     26  C18 UNL     1      23.062   8.120  34.407  0.00  0.00    +0.047 C 
ATOM     27  C19 UNL     1      21.312   6.268  34.297  0.00  0.00    +0.045 A 
ATOM     28  C20 UNL     1      20.327   7.094  35.072  0.00  0.00    +0.066 C 
ATOM     29  N4  UNL     1      20.935   5.026  33.895  0.00  0.00    -0.231 NA
ENDBRANCH  14  21
ENDBRANCH   7  11
BRANCH   1  32
ATOM     30  C2  UNL     1      16.727  -1.109  23.499  0.00  0.00    +0.162 A 
ATOM     31  C3  UNL     1      17.845  -0.267  23.672  0.00  0.00    +0.059 A 
ATOM     32  C4  UNL     1      18.209   0.193  24.953  0.00  0.00    +0.006 A 
ATOM     33  C24 UNL     1      17.427  -0.182  26.056  0.00  0.00    +0.014 A 
ATOM     34  C25 UNL     1      16.319  -1.015  25.891  0.00  0.00    +0.050 A 
ATOM     35  C26 UNL     1      15.967  -1.481  24.622  0.00  0.00    +0.158 A 
BRANCH  30  37
ATOM     36  C1  UNL     1      16.459  -0.849  21.022  0.00  0.00    +0.277 C 
ATOM     37  O1  UNL     1      16.345  -1.587  22.236  0.00  0.00    -0.491 OA
ENDBRANCH  30  37
BRANCH  35  38
ATOM     38  O2  UNL     1      14.855  -2.314  24.496  0.00  0.00    -0.503 OA
ATOM     39  H22 UNL     1      14.222  -2.488  25.267  0.00  0.00    +0.292 HD
ENDBRANCH  35  38
ENDBRANCH   1  32
TORSDOF 5
ENDMDL
MODEL 7
REMARK VINA RESULT:    -8.439     11.949     13.735
REMARK INTER + INTRA:         -11.419
REMARK INTER:                 -10.683
REMARK INTRA:                  -0.736
REMARK UNBOUND:                -0.760
REMARK  Name = /home/qwerty/github/datacon2025hack/step_04_hit_selection/docking/ligands/lig_120.pdb
REMARK  9 active torsions:
REMARK  status: ('A' for Active; 'I' for Inactive)
REMARK    1  A    between atoms: C1_1  and  O1_2
REMARK    2  A    between atoms: O1_2  and  C2_3
REMARK    3  A    between atoms: C4_5  and  C5_6
REMARK    4  A    between atoms: C9_12  and  C10_13
REMARK    5  A    between atoms: C13_16  and  C14_17
REMARK    6  A    between atoms: C15_19  and  C16_20
REMARK    7  A    between atoms: C17_21  and  C18_22
REMARK    8  A    between atoms: C19_23  and  C20_24
REMARK    9  A    between atoms: C26_35  and  O2_36
REMARK                            x       y       z     vdW  Elec       q    Type
REMARK                         _______ _______ _______ _____ _____    ______ ____
ROOT
ATOM      1  C5  UNL     1      21.331   2.174  28.006  0.00  0.00    +0.090 A 
ATOM      2  C6  UNL     1      22.356   3.083  27.612  0.00  0.00    +0.141 A 
ATOM      3  N1  UNL     1      22.514   3.414  26.295  0.00  0.00    -0.234 NA
ATOM      4  C7  UNL     1      21.679   2.858  25.385  0.00  0.00    +0.157 A 
ATOM      5  N2  UNL     1      21.673   3.069  24.062  0.00  0.00    -0.344 N 
ATOM      6  C8  UNL     1      20.653   2.318  23.580  0.00  0.00    +0.096 A 
ATOM      7  C9  UNL     1      20.010   1.628  24.617  0.00  0.00    +0.045 A 
ATOM      8  C23 UNL     1      20.695   1.999  25.754  0.00  0.00    +0.117 A 
ATOM      9  N8  UNL     1      20.503   1.650  27.048  0.00  0.00    -0.241 NA
ATOM     10  H6  UNL     1      22.316   3.686  23.517  0.00  0.00    +0.167 HD
ENDROOT
BRANCH   7  11
ATOM     11  C10 UNL     1      18.854   0.710  24.530  0.00  0.00    +0.075 A 
ATOM     12  C11 UNL     1      17.722   1.030  23.742  0.00  0.00    +0.040 A 
ATOM     13  C12 UNL     1      16.676   0.106  23.721  0.00  0.00    +0.034 A 
ATOM     14  C13 UNL     1      15.440   0.067  23.093  0.00  0.00    +0.137 A 
ATOM     15  N5  UNL     1      14.819  -1.089  23.437  0.00  0.00    -0.170 NA
ATOM     16  N6  UNL     1      15.618  -1.768  24.251  0.00  0.00    -0.275 N 
ATOM     17  C21 UNL     1      16.741  -1.055  24.430  0.00  0.00    +0.085 A 
ATOM     18  C22 UNL     1      17.852  -1.367  25.202  0.00  0.00    +0.139 A 
ATOM     19  N7  UNL     1      18.881  -0.471  25.231  0.00  0.00    -0.253 NA
ATOM     20  H18 UNL     1      15.390  -2.697  24.670  0.00  0.00    +0.189 HD
BRANCH  14  21
ATOM     21  C14 UNL     1      14.841   1.072  22.197  0.00  0.00    +0.181 A 
ATOM     22  N3  UNL     1      13.509   1.321  22.226  0.00  0.00    -0.231 NA
ATOM     23  C15 UNL     1      12.933   2.241  21.410  0.00  0.00    +0.045 A 
ATOM     24  C16 UNL     1      11.452   2.456  21.521  0.00  0.00    +0.066 C 
ATOM     25  C17 UNL     1      13.732   2.948  20.481  0.00  0.00    -0.008 A 
ATOM     26  C18 UNL     1      13.133   3.993  19.566  0.00  0.00    +0.047 C 
ATOM     27  C19 UNL     1      15.125   2.700  20.495  0.00  0.00    +0.045 A 
ATOM     28  C20 UNL     1      16.075   3.427  19.589  0.00  0.00    +0.066 C 
ATOM     29  N4  UNL     1      15.632   1.764  21.341  0.00  0.00    -0.231 NA
ENDBRANCH  14  21
ENDBRANCH   7  11
BRANCH   1  32
ATOM     30  C2  UNL     1      21.492   2.176  31.821  0.00  0.00    +0.162 A 
ATOM     31  C3  UNL     1      21.699   2.544  30.476  0.00  0.00    +0.059 A 
ATOM     32  C4  UNL     1      21.120   1.801  29.428  0.00  0.00    +0.006 A 
ATOM     33  C24 UNL     1      20.348   0.672  29.744  0.00  0.00    +0.014 A 
ATOM     34  C25 UNL     1      20.140   0.304  31.074  0.00  0.00    +0.050 A 
ATOM     35  C26 UNL     1      20.704   1.049  32.112  0.00  0.00    +0.158 A 
BRANCH  30  37
ATOM     36  C1  UNL     1      21.657   4.216  33.265  0.00  0.00    +0.277 C 
ATOM     37  O1  UNL     1      22.052   2.901  32.885  0.00  0.00    -0.491 OA
ENDBRANCH  30  37
BRANCH  35  38
ATOM     38  O2  UNL     1      20.471   0.652  33.428  0.00  0.00    -0.503 OA
ATOM     39  H22 UNL     1      20.004   1.251  34.098  0.00  0.00    +0.292 HD
ENDBRANCH  35  38
ENDBRANCH   1  32
TORSDOF 5
ENDMDL
MODEL 8
REMARK VINA RESULT:    -8.211     12.737     16.718
REMARK INTER + INTRA:         -11.131
REMARK INTER:                 -10.209
REMARK INTRA:                  -0.922
REMARK UNBOUND:                -0.760
REMARK  Name = /home/qwerty/github/datacon2025hack/step_04_hit_selection/docking/ligands/lig_120.pdb
REMARK  9 active torsions:
REMARK  status: ('A' for Active; 'I' for Inactive)
REMARK    1  A    between atoms: C1_1  and  O1_2
REMARK    2  A    between atoms: O1_2  and  C2_3
REMARK    3  A    between atoms: C4_5  and  C5_6
REMARK    4  A    between atoms: C9_12  and  C10_13
REMARK    5  A    between atoms: C13_16  and  C14_17
REMARK    6  A    between atoms: C15_19  and  C16_20
REMARK    7  A    between atoms: C17_21  and  C18_22
REMARK    8  A    between atoms: C19_23  and  C20_24
REMARK    9  A    between atoms: C26_35  and  O2_36
REMARK                            x       y       z     vdW  Elec       q    Type
REMARK                         _______ _______ _______ _____ _____    ______ ____
ROOT
ATOM      1  C5  UNL     1      21.030   1.801  29.837  0.00  0.00    +0.090 A 
ATOM      2  C6  UNL     1      20.350   0.625  30.269  0.00  0.00    +0.141 A 
ATOM      3  N1  UNL     1      20.137   0.403  31.601  0.00  0.00    -0.234 NA
ATOM      4  C7  UNL     1      20.587   1.322  32.488  0.00  0.00    +0.157 A 
ATOM      5  N2  UNL     1      20.461   1.281  33.822  0.00  0.00    -0.344 N 
ATOM      6  C8  UNL     1      21.042   2.421  34.274  0.00  0.00    +0.096 A 
ATOM      7  C9  UNL     1      21.536   3.184  33.207  0.00  0.00    +0.045 A 
ATOM      8  C23 UNL     1      21.226   2.448  32.084  0.00  0.00    +0.117 A 
ATOM      9  N8  UNL     1      21.453   2.707  30.774  0.00  0.00    -0.241 NA
ATOM     10  H6  UNL     1      20.007   0.534  34.393  0.00  0.00    +0.167 HD
ENDROOT
BRANCH   7  11
ATOM     11  C10 UNL     1      22.230   4.489  33.258  0.00  0.00    +0.075 A 
ATOM     12  C11 UNL     1      21.616   5.624  33.838  0.00  0.00    +0.040 A 
ATOM     13  C12 UNL     1      22.344   6.815  33.838  0.00  0.00    +0.034 A 
ATOM     14  C13 UNL     1      22.086   8.099  34.295  0.00  0.00    +0.137 A 
ATOM     15  N5  UNL     1      23.165   8.876  34.025  0.00  0.00    -0.170 NA
ATOM     16  N6  UNL     1      24.079   8.127  33.420  0.00  0.00    -0.275 N 
ATOM     17  C21 UNL     1      23.594   6.882  33.302  0.00  0.00    +0.085 A 
ATOM     18  C22 UNL     1      24.195   5.767  32.734  0.00  0.00    +0.139 A 
ATOM     19  N7  UNL     1      23.493   4.597  32.727  0.00  0.00    -0.253 NA
ATOM     20  H18 UNL     1      25.012   8.471  33.100  0.00  0.00    +0.189 HD
BRANCH  14  21
ATOM     21  C14 UNL     1      20.873   8.603  34.963  0.00  0.00    +0.181 A 
ATOM     22  N3  UNL     1      20.372   7.976  36.055  0.00  0.00    -0.231 NA
ATOM     23  C15 UNL     1      19.255   8.419  36.688  0.00  0.00    +0.045 A 
ATOM     24  C16 UNL     1      18.781   7.667  37.898  0.00  0.00    +0.066 C 
ATOM     25  C17 UNL     1      18.571   9.552  36.186  0.00  0.00    -0.008 A 
ATOM     26  C18 UNL     1      17.334  10.088  36.871  0.00  0.00    +0.047 C 
ATOM     27  C19 UNL     1      19.134  10.212  35.069  0.00  0.00    +0.045 A 
ATOM     28  C20 UNL     1      18.523  11.452  34.483  0.00  0.00    +0.066 C 
ATOM     29  N4  UNL     1      20.256   9.712  34.487  0.00  0.00    -0.231 NA
ENDBRANCH  14  21
ENDBRANCH   7  11
BRANCH   1  32
ATOM     30  C2  UNL     1      20.855   1.628  26.027  0.00  0.00    +0.162 A 
ATOM     31  C3  UNL     1      20.617   1.350  27.388  0.00  0.00    +0.059 A 
ATOM     32  C4  UNL     1      21.269   2.084  28.398  0.00  0.00    +0.006 A 
ATOM     33  C24 UNL     1      22.179   3.087  28.028  0.00  0.00    +0.014 A 
ATOM     34  C25 UNL     1      22.419   3.366  26.682  0.00  0.00    +0.050 A 
ATOM     35  C26 UNL     1      21.762   2.646  25.682  0.00  0.00    +0.158 A 
BRANCH  30  37
ATOM     36  C1  UNL     1      19.166  -0.026  25.199  0.00  0.00    +0.277 C 
ATOM     37  O1  UNL     1      20.216   0.916  24.999  0.00  0.00    -0.491 OA
ENDBRANCH  30  37
BRANCH  35  38
ATOM     38  O2  UNL     1      22.024   2.955  24.347  0.00  0.00    -0.503 OA
ATOM     39  H22 UNL     1      21.803   3.860  23.950  0.00  0.00    +0.292 HD
ENDBRANCH  35  38
ENDBRANCH   1  32
TORSDOF 5
ENDMDL
MODEL 9
REMARK VINA RESULT:    -8.086      4.173     10.391
REMARK INTER + INTRA:         -10.973
REMARK INTER:                 -10.185
REMARK INTRA:                  -0.788
REMARK UNBOUND:                -0.760
REMARK  Name = /home/qwerty/github/datacon2025hack/step_04_hit_selection/docking/ligands/lig_120.pdb
REMARK  9 active torsions:
REMARK  status: ('A' for Active; 'I' for Inactive)
REMARK    1  A    between atoms: C1_1  and  O1_2
REMARK    2  A    between atoms: O1_2  and  C2_3
REMARK    3  A    between atoms: C4_5  and  C5_6
REMARK    4  A    between atoms: C9_12  and  C10_13
REMARK    5  A    between atoms: C13_16  and  C14_17
REMARK    6  A    between atoms: C15_19  and  C16_20
REMARK    7  A    between atoms: C17_21  and  C18_22
REMARK    8  A    between atoms: C19_23  and  C20_24
REMARK    9  A    between atoms: C26_35  and  O2_36
REMARK                            x       y       z     vdW  Elec       q    Type
REMARK                         _______ _______ _______ _____ _____    ______ ____
ROOT
ATOM      1  C5  UNL     1      10.645  12.639  28.546  0.00  0.00    +0.090 A 
ATOM      2  C6  UNL     1      11.270  13.187  27.389  0.00  0.00    +0.141 A 
ATOM      3  N1  UNL     1      12.295  14.083  27.519  0.00  0.00    -0.234 NA
ATOM      4  C7  UNL     1      12.693  14.432  28.766  0.00  0.00    +0.157 A 
ATOM      5  N2  UNL     1      13.679  15.279  29.088  0.00  0.00    -0.344 N 
ATOM      6  C8  UNL     1      13.718  15.290  30.444  0.00  0.00    +0.096 A 
ATOM      7  C9  UNL     1      12.742  14.436  30.976  0.00  0.00    +0.045 A 
ATOM      8  C23 UNL     1      12.108  13.907  29.872  0.00  0.00    +0.117 A 
ATOM      9  N8  UNL     1      11.094  13.014  29.786  0.00  0.00    -0.241 NA
ATOM     10  H6  UNL     1      14.293  15.815  28.435  0.00  0.00    +0.167 HD
ENDROOT
BRANCH   7  11
ATOM     11  C10 UNL     1      12.449  14.151  32.397  0.00  0.00    +0.075 A 
ATOM     12  C11 UNL     1      13.457  13.684  33.274  0.00  0.00    +0.040 A 
ATOM     13  C12 UNL     1      13.089  13.438  34.597  0.00  0.00    +0.034 A 
ATOM     14  C13 UNL     1      13.771  12.984  35.717  0.00  0.00    +0.137 A 
ATOM     15  N5  UNL     1      12.902  12.928  36.757  0.00  0.00    -0.170 NA
ATOM     16  N6  UNL     1      11.710  13.328  36.329  0.00  0.00    -0.275 N 
ATOM     17  C21 UNL     1      11.812  13.638  35.028  0.00  0.00    +0.085 A 
ATOM     18  C22 UNL     1      10.824  14.096  34.166  0.00  0.00    +0.139 A 
ATOM     19  N7  UNL     1      11.172  14.340  32.869  0.00  0.00    -0.253 NA
ATOM     20  H18 UNL     1      10.854  13.384  36.924  0.00  0.00    +0.189 HD
BRANCH  14  21
ATOM     21  C14 UNL     1      15.191  12.607  35.827  0.00  0.00    +0.181 A 
ATOM     22  N3  UNL     1      16.129  13.201  35.050  0.00  0.00    -0.231 NA
ATOM     23  C15 UNL     1      17.444  12.870  35.132  0.00  0.00    +0.045 A 
ATOM     24  C16 UNL     1      18.412  13.590  34.239  0.00  0.00    +0.066 C 
ATOM     25  C17 UNL     1      17.854  11.859  36.033  0.00  0.00    -0.008 A 
ATOM     26  C18 UNL     1      19.310  11.472  36.168  0.00  0.00    +0.047 C 
ATOM     27  C19 UNL     1      16.864  11.280  36.861  0.00  0.00    +0.045 A 
ATOM     28  C20 UNL     1      17.192  10.235  37.887  0.00  0.00    +0.066 C 
ATOM     29  N4  UNL     1      15.567  11.662  36.724  0.00  0.00    -0.231 NA
ENDBRANCH  14  21
ENDBRANCH   7  11
BRANCH   1  32
ATOM     30  C2  UNL     1       8.202  10.055  27.156  0.00  0.00    +0.162 A 
ATOM     31  C3  UNL     1       9.258  10.986  27.237  0.00  0.00    +0.059 A 
ATOM     32  C4  UNL     1       9.538  11.653  28.445  0.00  0.00    +0.006 A 
ATOM     33  C24 UNL     1       8.734  11.392  29.567  0.00  0.00    +0.014 A 
ATOM     34  C25 UNL     1       7.688  10.472  29.492  0.00  0.00    +0.050 A 
ATOM     35  C26 UNL     1       7.419   9.802  28.296  0.00  0.00    +0.158 A 
BRANCH  30  37
ATOM     36  C1  UNL     1       7.692   9.997  24.704  0.00  0.00    +0.277 C 
ATOM     37  O1  UNL     1       7.903   9.371  25.966  0.00  0.00    -0.491 OA
ENDBRANCH  30  37
BRANCH  35  38
ATOM     38  O2  UNL     1       6.368   8.886  28.260  0.00  0.00    -0.503 OA
ATOM     39  H22 UNL     1       6.411   8.036  27.711  0.00  0.00    +0.292 HD
ENDBRANCH  35  38
ENDBRANCH   1  32
TORSDOF 5
ENDMDL
