MODEL 1
REMARK VINA RESULT:    -5.505      0.000      0.000
REMARK INTER + INTRA:          -8.155
REMARK INTER:                  -7.275
REMARK INTRA:                  -0.880
REMARK UNBOUND:                -0.880
REMARK  Name = /home/qwerty/github/datacon2025hack/step_04_hit_selection/docking/ligands/lig_161.pdb
REMARK  8 active torsions:
REMARK  status: ('A' for Active; 'I' for Inactive)
REMARK    1  A    between atoms: C2_2  and  C3_3
REMARK    2  A    between atoms: C2_2  and  C4_4
REMARK    3  A    between atoms: C4_4  and  C5_5
REMARK    4  A    between atoms: C5_5  and  C6_6
REMARK    5  A    between atoms: C9_11  and  N2_12
REMARK    6  A    between atoms: C10_13  and  C11_15
REMARK    7  A    between atoms: C13_17  and  C14_18
REMARK    8  A    between atoms: C15_21  and  O3_22
REMARK                            x       y       z     vdW  Elec       q    Type
REMARK                         _______ _______ _______ _____ _____    ______ ____
ROOT
ATOM      1  C6  UNL     1      13.551  12.454  34.252  0.00  0.00    +0.216 C 
ATOM      2  O1  UNL     1      13.823  13.355  33.412  0.00  0.00    -0.276 OA
ATOM      3  N1  UNL     1      14.543  12.060  35.220  0.00  0.00    -0.299 N 
ATOM      4  C7  UNL     1      14.810  10.639  35.477  0.00  0.00    +0.110 C 
ATOM      5  C8  UNL     1      15.103  10.421  36.962  0.00  0.00    +0.044 C 
ATOM      6  C9  UNL     1      16.233  11.345  37.454  0.00  0.00    +0.105 C 
ATOM      7  C15 UNL     1      15.885  12.823  37.146  0.00  0.00    +0.152 C 
ATOM      8  C16 UNL     1      15.546  13.036  35.661  0.00  0.00    +0.141 C 
ENDROOT
BRANCH   6   9
ATOM      9  N2  UNL     1      17.520  10.955  36.860  0.00  0.00    -0.305 N 
ATOM     10  C10 UNL     1      18.374   9.970  37.463  0.00  0.00    +0.263 C 
ATOM     11  O2  UNL     1      18.072   9.476  38.582  0.00  0.00    -0.268 OA
ATOM     12  H15 UNL     1      17.855  11.438  35.997  0.00  0.00    +0.149 HD
BRANCH  10  13
ATOM     13  C11 UNL     1      19.607   9.531  36.782  0.00  0.00    +0.135 A 
ATOM     14  C12 UNL     1      20.367   8.419  37.219  0.00  0.00    +0.045 A 
ATOM     15  C13 UNL     1      21.472   8.169  36.418  0.00  0.00    +0.007 A 
ATOM     16  C14 UNL     1      22.535   7.148  36.638  0.00  0.00    +0.053 C 
ATOM     17  S1  UNL     1      21.461   9.358  35.253  0.00  0.00    +0.007 S 
ATOM     18  N3  UNL     1      20.083  10.180  35.683  0.00  0.00    -0.206 NA
ENDBRANCH  10  13
ENDBRANCH   6   9
BRANCH   7  19
ATOM     19  O3  UNL     1      16.951  13.663  37.504  0.00  0.00    -0.388 OA
ATOM     20  H21 UNL     1      16.590  14.324  38.150  0.00  0.00    +0.210 HD
ENDBRANCH   7  19
BRANCH   1  21
ATOM     21  C5  UNL     1      12.201  11.786  34.211  0.00  0.00    +0.100 C 
BRANCH  21  22
ATOM     22  C4  UNL     1      11.353  12.148  35.438  0.00  0.00    +0.039 C 
BRANCH  22  24
ATOM     23  C1  UNL     1      11.233   9.724  35.922  0.00  0.00    +0.007 C 
ATOM     24  C2  UNL     1      11.262  10.981  36.394  0.00  0.00    -0.079 C 
ATOM     25  C3  UNL     1      11.192  11.215  37.880  0.00  0.00    +0.038 C 
ENDBRANCH  22  24
ENDBRANCH  21  22
ENDBRANCH   1  21
TORSDOF 6
ENDMDL
MODEL 2
REMARK VINA RESULT:    -5.368     11.653     14.898
REMARK INTER + INTRA:          -7.973
REMARK INTER:                  -6.993
REMARK INTRA:                  -0.980
REMARK UNBOUND:                -0.880
REMARK  Name = /home/qwerty/github/datacon2025hack/step_04_hit_selection/docking/ligands/lig_161.pdb
REMARK  8 active torsions:
REMARK  status: ('A' for Active; 'I' for Inactive)
REMARK    1  A    between atoms: C2_2  and  C3_3
REMARK    2  A    between atoms: C2_2  and  C4_4
REMARK    3  A    between atoms: C4_4  and  C5_5
REMARK    4  A    between atoms: C5_5  and  C6_6
REMARK    5  A    between atoms: C9_11  and  N2_12
REMARK    6  A    between atoms: C10_13  and  C11_15
REMARK    7  A    between atoms: C13_17  and  C14_18
REMARK    8  A    between atoms: C15_21  and  O3_22
REMARK                            x       y       z     vdW  Elec       q    Type
REMARK                         _______ _______ _______ _____ _____    ______ ____
ROOT
ATOM      1  C6  UNL     1      10.404   9.384  21.174  0.00  0.00    +0.216 C 
ATOM      2  O1  UNL     1      10.425  10.366  20.383  0.00  0.00    -0.276 OA
ATOM      3  N1  UNL     1       9.700   9.495  22.427  0.00  0.00    -0.299 N 
ATOM      4  C7  UNL     1      10.324   9.037  23.675  0.00  0.00    +0.110 C 
ATOM      5  C8  UNL     1       9.271   8.406  24.587  0.00  0.00    +0.044 C 
ATOM      6  C9  UNL     1       8.085   9.361  24.820  0.00  0.00    +0.105 C 
ATOM      7  C15 UNL     1       7.482   9.804  23.464  0.00  0.00    +0.152 C 
ATOM      8  C16 UNL     1       8.548  10.397  22.528  0.00  0.00    +0.141 C 
ENDROOT
BRANCH   6   9
ATOM      9  N2  UNL     1       8.498  10.514  25.634  0.00  0.00    -0.305 N 
ATOM     10  C10 UNL     1       8.248  10.582  27.047  0.00  0.00    +0.263 C 
ATOM     11  O2  UNL     1       7.578   9.677  27.612  0.00  0.00    -0.268 OA
ATOM     12  H15 UNL     1       8.946  11.335  25.170  0.00  0.00    +0.149 HD
BRANCH  10  13
ATOM     13  C11 UNL     1       8.771  11.708  27.845  0.00  0.00    +0.135 A 
ATOM     14  C12 UNL     1       9.884  12.481  27.437  0.00  0.00    +0.045 A 
ATOM     15  C13 UNL     1      10.189  13.504  28.325  0.00  0.00    +0.007 A 
ATOM     16  C14 UNL     1      11.346  14.441  28.262  0.00  0.00    +0.053 C 
ATOM     17  S1  UNL     1       9.094  13.358  29.570  0.00  0.00    +0.007 S 
ATOM     18  N3  UNL     1       8.202  12.065  29.030  0.00  0.00    -0.206 NA
ENDBRANCH  10  13
ENDBRANCH   6   9
BRANCH   7  19
ATOM     19  O3  UNL     1       6.463  10.749  23.665  0.00  0.00    -0.388 OA
ATOM     20  H21 UNL     1       6.467  10.972  24.632  0.00  0.00    +0.210 HD
ENDBRANCH   7  19
BRANCH   1  21
ATOM     21  C5  UNL     1      11.137   8.120  20.807  0.00  0.00    +0.100 C 
BRANCH  21  22
ATOM     22  C4  UNL     1      10.182   7.050  20.262  0.00  0.00    +0.039 C 
BRANCH  22  24
ATOM     23  C1  UNL     1      10.406   5.403  22.096  0.00  0.00    +0.007 C 
ATOM     24  C2  UNL     1       9.609   6.216  21.385  0.00  0.00    -0.079 C 
ATOM     25  C3  UNL     1       8.140   6.281  21.710  0.00  0.00    +0.038 C 
ENDBRANCH  22  24
ENDBRANCH  21  22
ENDBRANCH   1  21
TORSDOF 6
ENDMDL
MODEL 3
REMARK VINA RESULT:    -5.366      5.315      9.277
REMARK INTER + INTRA:          -7.972
REMARK INTER:                  -7.002
REMARK INTRA:                  -0.969
REMARK UNBOUND:                -0.880
REMARK  Name = /home/qwerty/github/datacon2025hack/step_04_hit_selection/docking/ligands/lig_161.pdb
REMARK  8 active torsions:
REMARK  status: ('A' for Active; 'I' for Inactive)
REMARK    1  A    between atoms: C2_2  and  C3_3
REMARK    2  A    between atoms: C2_2  and  C4_4
REMARK    3  A    between atoms: C4_4  and  C5_5
REMARK    4  A    between atoms: C5_5  and  C6_6
REMARK    5  A    between atoms: C9_11  and  N2_12
REMARK    6  A    between atoms: C10_13  and  C11_15
REMARK    7  A    between atoms: C13_17  and  C14_18
REMARK    8  A    between atoms: C15_21  and  O3_22
REMARK                            x       y       z     vdW  Elec       q    Type
REMARK                         _______ _______ _______ _____ _____    ______ ____
ROOT
ATOM      1  C6  UNL     1      12.438  12.165  36.136  0.00  0.00    +0.216 C 
ATOM      2  O1  UNL     1      11.461  12.378  36.905  0.00  0.00    -0.276 OA
ATOM      3  N1  UNL     1      12.383  12.627  34.772  0.00  0.00    -0.299 N 
ATOM      4  C7  UNL     1      12.779  11.740  33.670  0.00  0.00    +0.110 C 
ATOM      5  C8  UNL     1      13.495  12.544  32.582  0.00  0.00    +0.044 C 
ATOM      6  C9  UNL     1      12.646  13.742  32.119  0.00  0.00    +0.105 C 
ATOM      7  C15 UNL     1      12.262  14.627  33.331  0.00  0.00    +0.152 C 
ATOM      8  C16 UNL     1      11.583  13.812  34.444  0.00  0.00    +0.141 C 
ENDROOT
BRANCH   6   9
ATOM      9  N2  UNL     1      11.457  13.284  31.383  0.00  0.00    -0.305 N 
ATOM     10  C10 UNL     1      11.173  13.715  30.043  0.00  0.00    +0.263 C 
ATOM     11  O2  UNL     1      11.903  14.582  29.492  0.00  0.00    -0.268 OA
ATOM     12  H15 UNL     1      10.768  12.660  31.859  0.00  0.00    +0.149 HD
BRANCH  10  13
ATOM     13  C11 UNL     1      10.028  13.151  29.303  0.00  0.00    +0.135 A 
ATOM     14  C12 UNL     1       9.342  11.988  29.728  0.00  0.00    +0.045 A 
ATOM     15  C13 UNL     1       8.283  11.649  28.898  0.00  0.00    +0.007 A 
ATOM     16  C14 UNL     1       7.415  10.441  28.988  0.00  0.00    +0.053 C 
ATOM     17  S1  UNL     1       8.290  12.779  27.677  0.00  0.00    +0.007 S 
ATOM     18  N3  UNL     1       9.565  13.727  28.159  0.00  0.00    -0.206 NA
ENDBRANCH  10  13
ENDBRANCH   6   9
BRANCH   7  19
ATOM     19  O3  UNL     1      11.409  15.666  32.929  0.00  0.00    -0.388 OA
ATOM     20  H21 UNL     1      10.706  15.744  33.625  0.00  0.00    +0.210 HD
ENDBRANCH   7  19
BRANCH   1  21
ATOM     21  C5  UNL     1      13.634  11.409  36.651  0.00  0.00    +0.100 C 
BRANCH  21  22
ATOM     22  C4  UNL     1      14.761  12.357  37.081  0.00  0.00    +0.039 C 
BRANCH  22  24
ATOM     23  C1  UNL     1      16.250  11.879  35.163  0.00  0.00    +0.007 C 
ATOM     24  C2  UNL     1      15.585  12.790  35.890  0.00  0.00    -0.079 C 
ATOM     25  C3  UNL     1      15.678  14.246  35.516  0.00  0.00    +0.038 C 
ENDBRANCH  22  24
ENDBRANCH  21  22
ENDBRANCH   1  21
TORSDOF 6
ENDMDL
MODEL 4
REMARK VINA RESULT:    -5.359      3.677      8.711
REMARK INTER + INTRA:          -7.962
REMARK INTER:                  -7.059
REMARK INTRA:                  -0.902
REMARK UNBOUND:                -0.880
REMARK  Name = /home/qwerty/github/datacon2025hack/step_04_hit_selection/docking/ligands/lig_161.pdb
REMARK  8 active torsions:
REMARK  status: ('A' for Active; 'I' for Inactive)
REMARK    1  A    between atoms: C2_2  and  C3_3
REMARK    2  A    between atoms: C2_2  and  C4_4
REMARK    3  A    between atoms: C4_4  and  C5_5
REMARK    4  A    between atoms: C5_5  and  C6_6
REMARK    5  A    between atoms: C9_11  and  N2_12
REMARK    6  A    between atoms: C10_13  and  C11_15
REMARK    7  A    between atoms: C13_17  and  C14_18
REMARK    8  A    between atoms: C15_21  and  O3_22
REMARK                            x       y       z     vdW  Elec       q    Type
REMARK                         _______ _______ _______ _____ _____    ______ ____
ROOT
ATOM      1  C6  UNL     1      20.966   5.790  33.910  0.00  0.00    +0.216 C 
ATOM      2  O1  UNL     1      20.420   4.798  34.466  0.00  0.00    -0.276 OA
ATOM      3  N1  UNL     1      20.898   7.084  34.539  0.00  0.00    -0.299 N 
ATOM      4  C7  UNL     1      20.544   8.275  33.756  0.00  0.00    +0.110 C 
ATOM      5  C8  UNL     1      21.348   9.482  34.245  0.00  0.00    +0.044 C 
ATOM      6  C9  UNL     1      21.187   9.687  35.762  0.00  0.00    +0.105 C 
ATOM      7  C15 UNL     1      21.572   8.393  36.521  0.00  0.00    +0.152 C 
ATOM      8  C16 UNL     1      20.798   7.171  36.001  0.00  0.00    +0.141 C 
ENDROOT
BRANCH   6   9
ATOM      9  N2  UNL     1      19.819  10.120  36.086  0.00  0.00    -0.305 N 
ATOM     10  C10 UNL     1      19.450  11.507  36.152  0.00  0.00    +0.263 C 
ATOM     11  O2  UNL     1      20.330  12.399  36.017  0.00  0.00    -0.268 OA
ATOM     12  H15 UNL     1      19.097   9.404  36.324  0.00  0.00    +0.149 HD
BRANCH  10  13
ATOM     13  C11 UNL     1      18.045  11.897  36.377  0.00  0.00    +0.135 A 
ATOM     14  C12 UNL     1      17.463  13.036  35.770  0.00  0.00    +0.045 A 
ATOM     15  C13 UNL     1      16.124  13.201  36.099  0.00  0.00    +0.007 A 
ATOM     16  C14 UNL     1      15.234  14.335  35.722  0.00  0.00    +0.053 C 
ATOM     17  S1  UNL     1      15.763  11.959  37.146  0.00  0.00    +0.007 S 
ATOM     18  N3  UNL     1      17.226  11.173  37.188  0.00  0.00    -0.206 NA
ENDBRANCH  10  13
ENDBRANCH   6   9
BRANCH   7  19
ATOM     19  O3  UNL     1      21.337   8.541  37.896  0.00  0.00    -0.388 OA
ATOM     20  H21 UNL     1      21.531   9.489  38.119  0.00  0.00    +0.210 HD
ENDBRANCH   7  19
BRANCH   1  21
ATOM     21  C5  UNL     1      21.656   5.608  32.584  0.00  0.00    +0.100 C 
BRANCH  21  22
ATOM     22  C4  UNL     1      23.182   5.695  32.724  0.00  0.00    +0.039 C 
BRANCH  22  24
ATOM     23  C1  UNL     1      23.185   7.589  31.131  0.00  0.00    +0.007 C 
ATOM     24  C2  UNL     1      23.692   7.034  32.243  0.00  0.00    -0.079 C 
ATOM     25  C3  UNL     1      24.780   7.752  32.998  0.00  0.00    +0.038 C 
ENDBRANCH  22  24
ENDBRANCH  21  22
ENDBRANCH   1  21
TORSDOF 6
ENDMDL
MODEL 5
REMARK VINA RESULT:    -5.164      4.076      6.052
REMARK INTER + INTRA:          -7.705
REMARK INTER:                  -7.194
REMARK INTRA:                  -0.510
REMARK UNBOUND:                -0.880
REMARK  Name = /home/qwerty/github/datacon2025hack/step_04_hit_selection/docking/ligands/lig_161.pdb
REMARK  8 active torsions:
REMARK  status: ('A' for Active; 'I' for Inactive)
REMARK    1  A    between atoms: C2_2  and  C3_3
REMARK    2  A    between atoms: C2_2  and  C4_4
REMARK    3  A    between atoms: C4_4  and  C5_5
REMARK    4  A    between atoms: C5_5  and  C6_6
REMARK    5  A    between atoms: C9_11  and  N2_12
REMARK    6  A    between atoms: C10_13  and  C11_15
REMARK    7  A    between atoms: C13_17  and  C14_18
REMARK    8  A    between atoms: C15_21  and  O3_22
REMARK                            x       y       z     vdW  Elec       q    Type
REMARK                         _______ _______ _______ _____ _____    ______ ____
ROOT
ATOM      1  C6  UNL     1      11.251  13.486  30.630  0.00  0.00    +0.216 C 
ATOM      2  O1  UNL     1      11.792  14.529  30.172  0.00  0.00    -0.276 OA
ATOM      3  N1  UNL     1      11.521  13.082  31.987  0.00  0.00    -0.299 N 
ATOM      4  C7  UNL     1      11.848  11.684  32.296  0.00  0.00    +0.110 C 
ATOM      5  C8  UNL     1      11.231  11.286  33.639  0.00  0.00    +0.044 C 
ATOM      6  C9  UNL     1      11.639  12.263  34.756  0.00  0.00    +0.105 C 
ATOM      7  C15 UNL     1      11.270  13.714  34.360  0.00  0.00    +0.152 C 
ATOM      8  C16 UNL     1      11.851  14.101  32.990  0.00  0.00    +0.141 C 
ENDROOT
BRANCH   6   9
ATOM      9  N2  UNL     1      13.072  12.133  35.064  0.00  0.00    -0.305 N 
ATOM     10  C10 UNL     1      13.541  11.569  36.299  0.00  0.00    +0.263 C 
ATOM     11  O2  UNL     1      12.719  11.251  37.199  0.00  0.00    -0.268 OA
ATOM     12  H15 UNL     1      13.777  12.501  34.388  0.00  0.00    +0.149 HD
BRANCH  10  13
ATOM     13  C11 UNL     1      14.984  11.359  36.524  0.00  0.00    +0.135 A 
ATOM     14  C12 UNL     1      15.971  12.249  36.037  0.00  0.00    +0.045 A 
ATOM     15  C13 UNL     1      17.261  11.874  36.386  0.00  0.00    +0.007 A 
ATOM     16  C14 UNL     1      18.536  12.519  35.962  0.00  0.00    +0.053 C 
ATOM     17  S1  UNL     1      17.100  10.450  37.233  0.00  0.00    +0.007 S 
ATOM     18  N3  UNL     1      15.447  10.286  37.222  0.00  0.00    -0.206 NA
ENDBRANCH  10  13
ENDBRANCH   6   9
BRANCH   7  19
ATOM     19  O3  UNL     1      11.725  14.620  35.330  0.00  0.00    -0.388 OA
ATOM     20  H21 UNL     1      11.286  14.369  36.184  0.00  0.00    +0.210 HD
ENDBRANCH   7  19
BRANCH   1  21
ATOM     21  C5  UNL     1      10.352  12.666  29.742  0.00  0.00    +0.100 C 
BRANCH  21  22
ATOM     22  C4  UNL     1       8.955  13.289  29.623  0.00  0.00    +0.039 C 
BRANCH  22  24
ATOM     23  C1  UNL     1       7.864  14.006  27.521  0.00  0.00    +0.007 C 
ATOM     24  C2  UNL     1       8.351  13.002  28.267  0.00  0.00    -0.079 C 
ATOM     25  C3  UNL     1       8.279  11.591  27.746  0.00  0.00    +0.038 C 
ENDBRANCH  22  24
ENDBRANCH  21  22
ENDBRANCH   1  21
TORSDOF 6
ENDMDL
MODEL 6
REMARK VINA RESULT:    -5.159      4.419      6.599
REMARK INTER + INTRA:          -7.698
REMARK INTER:                  -6.823
REMARK INTRA:                  -0.875
REMARK UNBOUND:                -0.880
REMARK  Name = /home/qwerty/github/datacon2025hack/step_04_hit_selection/docking/ligands/lig_161.pdb
REMARK  8 active torsions:
REMARK  status: ('A' for Active; 'I' for Inactive)
REMARK    1  A    between atoms: C2_2  and  C3_3
REMARK    2  A    between atoms: C2_2  and  C4_4
REMARK    3  A    between atoms: C4_4  and  C5_5
REMARK    4  A    between atoms: C5_5  and  C6_6
REMARK    5  A    between atoms: C9_11  and  N2_12
REMARK    6  A    between atoms: C10_13  and  C11_15
REMARK    7  A    between atoms: C13_17  and  C14_18
REMARK    8  A    between atoms: C15_21  and  O3_22
REMARK                            x       y       z     vdW  Elec       q    Type
REMARK                         _______ _______ _______ _____ _____    ______ ____
ROOT
ATOM      1  C6  UNL     1      11.311  13.897  28.749  0.00  0.00    +0.216 C 
ATOM      2  O1  UNL     1      11.857  14.933  28.280  0.00  0.00    -0.276 OA
ATOM      3  N1  UNL     1      11.571  13.512  30.113  0.00  0.00    -0.299 N 
ATOM      4  C7  UNL     1      11.895  12.119  30.445  0.00  0.00    +0.110 C 
ATOM      5  C8  UNL     1      11.267  11.740  31.789  0.00  0.00    +0.044 C 
ATOM      6  C9  UNL     1      11.668  12.733  32.895  0.00  0.00    +0.105 C 
ATOM      7  C15 UNL     1      11.302  14.179  32.475  0.00  0.00    +0.152 C 
ATOM      8  C16 UNL     1      11.895  14.545  31.104  0.00  0.00    +0.141 C 
ENDROOT
BRANCH   6   9
ATOM      9  N2  UNL     1      13.098  12.606  33.215  0.00  0.00    -0.305 N 
ATOM     10  C10 UNL     1      13.599  12.752  34.554  0.00  0.00    +0.263 C 
ATOM     11  O2  UNL     1      12.819  13.086  35.485  0.00  0.00    -0.268 OA
ATOM     12  H15 UNL     1      13.785  12.451  32.444  0.00  0.00    +0.149 HD
BRANCH  10  13
ATOM     13  C11 UNL     1      15.025  12.513  34.849  0.00  0.00    +0.135 A 
ATOM     14  C12 UNL     1      15.586  11.214  34.904  0.00  0.00    +0.045 A 
ATOM     15  C13 UNL     1      16.948  11.223  35.171  0.00  0.00    +0.007 A 
ATOM     16  C14 UNL     1      17.832  10.044  35.396  0.00  0.00    +0.053 C 
ATOM     17  S1  UNL     1      17.357  12.824  35.362  0.00  0.00    +0.007 S 
ATOM     18  N3  UNL     1      15.885  13.541  35.084  0.00  0.00    -0.206 NA
ENDBRANCH  10  13
ENDBRANCH   6   9
BRANCH   7  19
ATOM     19  O3  UNL     1      11.751  15.098  33.435  0.00  0.00    -0.388 OA
ATOM     20  H21 UNL     1      11.127  15.869  33.407  0.00  0.00    +0.210 HD
ENDBRANCH   7  19
BRANCH   1  21
ATOM     21  C5  UNL     1      10.419  13.065  27.866  0.00  0.00    +0.100 C 
BRANCH  21  22
ATOM     22  C4  UNL     1       8.979  13.597  27.854  0.00  0.00    +0.039 C 
BRANCH  22  24
ATOM     23  C1  UNL     1       7.451  13.879  29.779  0.00  0.00    +0.007 C 
ATOM     24  C2  UNL     1       8.194  13.054  29.026  0.00  0.00    -0.079 C 
ATOM     25  C3  UNL     1       8.247  11.587  29.365  0.00  0.00    +0.038 C 
ENDBRANCH  22  24
ENDBRANCH  21  22
ENDBRANCH   1  21
TORSDOF 6
ENDMDL
MODEL 7
REMARK VINA RESULT:    -5.107      6.790     11.069
REMARK INTER + INTRA:          -7.629
REMARK INTER:                  -6.918
REMARK INTRA:                  -0.712
REMARK UNBOUND:                -0.880
REMARK  Name = /home/qwerty/github/datacon2025hack/step_04_hit_selection/docking/ligands/lig_161.pdb
REMARK  8 active torsions:
REMARK  status: ('A' for Active; 'I' for Inactive)
REMARK    1  A    between atoms: C2_2  and  C3_3
REMARK    2  A    between atoms: C2_2  and  C4_4
REMARK    3  A    between atoms: C4_4  and  C5_5
REMARK    4  A    between atoms: C5_5  and  C6_6
REMARK    5  A    between atoms: C9_11  and  N2_12
REMARK    6  A    between atoms: C10_13  and  C11_15
REMARK    7  A    between atoms: C13_17  and  C14_18
REMARK    8  A    between atoms: C15_21  and  O3_22
REMARK                            x       y       z     vdW  Elec       q    Type
REMARK                         _______ _______ _______ _____ _____    ______ ____
ROOT
ATOM      1  C6  UNL     1      21.362   2.156  30.960  0.00  0.00    +0.216 C 
ATOM      2  O1  UNL     1      21.360   1.172  31.748  0.00  0.00    -0.276 OA
ATOM      3  N1  UNL     1      21.630   3.476  31.471  0.00  0.00    -0.299 N 
ATOM      4  C7  UNL     1      20.784   4.612  31.082  0.00  0.00    +0.110 C 
ATOM      5  C8  UNL     1      21.637   5.873  30.927  0.00  0.00    +0.044 C 
ATOM      6  C9  UNL     1      22.468   6.146  32.194  0.00  0.00    +0.105 C 
ATOM      7  C15 UNL     1      23.329   4.908  32.546  0.00  0.00    +0.152 C 
ATOM      8  C16 UNL     1      22.480   3.631  32.657  0.00  0.00    +0.141 C 
ENDROOT
BRANCH   6   9
ATOM      9  N2  UNL     1      21.598   6.539  33.313  0.00  0.00    -0.305 N 
ATOM     10  C10 UNL     1      21.983   7.542  34.266  0.00  0.00    +0.263 C 
ATOM     11  O2  UNL     1      23.133   8.053  34.213  0.00  0.00    -0.268 OA
ATOM     12  H15 UNL     1      20.689   6.045  33.454  0.00  0.00    +0.149 HD
BRANCH  10  13
ATOM     13  C11 UNL     1      21.039   7.982  35.312  0.00  0.00    +0.135 A 
ATOM     14  C12 UNL     1      20.226   7.077  36.036  0.00  0.00    +0.045 A 
ATOM     15  C13 UNL     1      19.432   7.703  36.987  0.00  0.00    +0.007 A 
ATOM     16  C14 UNL     1      18.393   7.075  37.852  0.00  0.00    +0.053 C 
ATOM     17  S1  UNL     1      19.755   9.329  36.842  0.00  0.00    +0.007 S 
ATOM     18  N3  UNL     1      20.900   9.296  35.639  0.00  0.00    -0.206 NA
ENDBRANCH  10  13
ENDBRANCH   6   9
BRANCH   7  19
ATOM     19  O3  UNL     1      24.017   5.114  33.752  0.00  0.00    -0.388 OA
ATOM     20  H21 UNL     1      24.478   5.989  33.673  0.00  0.00    +0.210 HD
ENDBRANCH   7  19
BRANCH   1  21
ATOM     21  C5  UNL     1      21.057   1.937  29.501  0.00  0.00    +0.100 C 
BRANCH  21  22
ATOM     22  C4  UNL     1      22.337   1.902  28.655  0.00  0.00    +0.039 C 
BRANCH  22  24
ATOM     23  C1  UNL     1      24.437   0.758  29.291  0.00  0.00    +0.007 C 
ATOM     24  C2  UNL     1      23.143   0.657  28.948  0.00  0.00    -0.079 C 
ATOM     25  C3  UNL     1      22.508  -0.704  28.847  0.00  0.00    +0.038 C 
ENDBRANCH  22  24
ENDBRANCH  21  22
ENDBRANCH   1  21
TORSDOF 6
ENDMDL
MODEL 8
REMARK VINA RESULT:    -5.103     16.092     18.078
REMARK INTER + INTRA:          -7.624
REMARK INTER:                  -6.897
REMARK INTRA:                  -0.726
REMARK UNBOUND:                -0.880
REMARK  Name = /home/qwerty/github/datacon2025hack/step_04_hit_selection/docking/ligands/lig_161.pdb
REMARK  8 active torsions:
REMARK  status: ('A' for Active; 'I' for Inactive)
REMARK    1  A    between atoms: C2_2  and  C3_3
REMARK    2  A    between atoms: C2_2  and  C4_4
REMARK    3  A    between atoms: C4_4  and  C5_5
REMARK    4  A    between atoms: C5_5  and  C6_6
REMARK    5  A    between atoms: C9_11  and  N2_12
REMARK    6  A    between atoms: C10_13  and  C11_15
REMARK    7  A    between atoms: C13_17  and  C14_18
REMARK    8  A    between atoms: C15_21  and  O3_22
REMARK                            x       y       z     vdW  Elec       q    Type
REMARK                         _______ _______ _______ _____ _____    ______ ____
ROOT
ATOM      1  C6  UNL     1      16.443  -0.657  22.953  0.00  0.00    +0.216 C 
ATOM      2  O1  UNL     1      17.660  -0.339  23.048  0.00  0.00    -0.276 OA
ATOM      3  N1  UNL     1      15.529   0.229  22.278  0.00  0.00    -0.299 N 
ATOM      4  C7  UNL     1      14.227   0.553  22.877  0.00  0.00    +0.110 C 
ATOM      5  C8  UNL     1      13.162   0.670  21.785  0.00  0.00    +0.044 C 
ATOM      6  C9  UNL     1      13.587   1.665  20.690  0.00  0.00    +0.105 C 
ATOM      7  C15 UNL     1      14.966   1.265  20.109  0.00  0.00    +0.152 C 
ATOM      8  C16 UNL     1      16.027   1.103  21.210  0.00  0.00    +0.141 C 
ENDROOT
BRANCH   6   9
ATOM      9  N2  UNL     1      13.596   3.040  21.212  0.00  0.00    -0.305 N 
ATOM     10  C10 UNL     1      13.148   4.159  20.430  0.00  0.00    +0.263 C 
ATOM     11  O2  UNL     1      12.815   3.993  19.227  0.00  0.00    -0.268 OA
ATOM     12  H15 UNL     1      13.983   3.225  22.164  0.00  0.00    +0.149 HD
BRANCH  10  13
ATOM     13  C11 UNL     1      13.075   5.507  21.027  0.00  0.00    +0.135 A 
ATOM     14  C12 UNL     1      12.062   6.437  20.689  0.00  0.00    +0.045 A 
ATOM     15  C13 UNL     1      12.169   7.632  21.387  0.00  0.00    +0.007 A 
ATOM     16  C14 UNL     1      11.340   8.858  21.213  0.00  0.00    +0.053 C 
ATOM     17  S1  UNL     1      13.525   7.476  22.339  0.00  0.00    +0.007 S 
ATOM     18  N3  UNL     1      13.987   5.930  21.944  0.00  0.00    -0.206 NA
ENDBRANCH  10  13
ENDBRANCH   6   9
BRANCH   7  19
ATOM     19  O3  UNL     1      15.403   2.220  19.179  0.00  0.00    -0.388 OA
ATOM     20  H21 UNL     1      15.869   2.929  19.694  0.00  0.00    +0.210 HD
ENDBRANCH   7  19
BRANCH   1  21
ATOM     21  C5  UNL     1      15.963  -1.944  23.569  0.00  0.00    +0.100 C 
BRANCH  21  22
ATOM     22  C4  UNL     1      16.278  -2.006  25.070  0.00  0.00    +0.039 C 
BRANCH  22  24
ATOM     23  C1  UNL     1      13.978  -2.346  25.914  0.00  0.00    +0.007 C 
ATOM     24  C2  UNL     1      15.081  -1.583  25.890  0.00  0.00    -0.079 C 
ATOM     25  C3  UNL     1      15.111  -0.298  26.676  0.00  0.00    +0.038 C 
ENDBRANCH  22  24
ENDBRANCH  21  22
ENDBRANCH   1  21
TORSDOF 6
ENDMDL
MODEL 9
REMARK VINA RESULT:    -5.026     14.648     16.725
REMARK INTER + INTRA:          -7.521
REMARK INTER:                  -6.817
REMARK INTRA:                  -0.704
REMARK UNBOUND:                -0.880
REMARK  Name = /home/qwerty/github/datacon2025hack/step_04_hit_selection/docking/ligands/lig_161.pdb
REMARK  8 active torsions:
REMARK  status: ('A' for Active; 'I' for Inactive)
REMARK    1  A    between atoms: C2_2  and  C3_3
REMARK    2  A    between atoms: C2_2  and  C4_4
REMARK    3  A    between atoms: C4_4  and  C5_5
REMARK    4  A    between atoms: C5_5  and  C6_6
REMARK    5  A    between atoms: C9_11  and  N2_12
REMARK    6  A    between atoms: C10_13  and  C11_15
REMARK    7  A    between atoms: C13_17  and  C14_18
REMARK    8  A    between atoms: C15_21  and  O3_22
REMARK                            x       y       z     vdW  Elec       q    Type
REMARK                         _______ _______ _______ _____ _____    ______ ____
ROOT
ATOM      1  C6  UNL     1       8.702   7.326  24.740  0.00  0.00    +0.216 C 
ATOM      2  O1  UNL     1       8.156   6.753  25.722  0.00  0.00    -0.276 OA
ATOM      3  N1  UNL     1       9.034   6.560  23.565  0.00  0.00    -0.299 N 
ATOM      4  C7  UNL     1      10.352   6.703  22.931  0.00  0.00    +0.110 C 
ATOM      5  C8  UNL     1      10.215   6.607  21.410  0.00  0.00    +0.044 C 
ATOM      6  C9  UNL     1       9.480   5.320  20.993  0.00  0.00    +0.105 C 
ATOM      7  C15 UNL     1       8.106   5.235  21.702  0.00  0.00    +0.152 C 
ATOM      8  C16 UNL     1       8.237   5.376  23.227  0.00  0.00    +0.141 C 
ENDROOT
BRANCH   6   9
ATOM      9  N2  UNL     1      10.308   4.136  21.269  0.00  0.00    -0.305 N 
ATOM     10  C10 UNL     1      11.539   3.883  20.573  0.00  0.00    +0.263 C 
ATOM     11  O2  UNL     1      11.897   4.640  19.631  0.00  0.00    -0.268 OA
ATOM     12  H15 UNL     1       9.975   3.426  21.959  0.00  0.00    +0.149 HD
BRANCH  10  13
ATOM     13  C11 UNL     1      12.392   2.741  20.953  0.00  0.00    +0.135 A 
ATOM     14  C12 UNL     1      13.645   2.488  20.345  0.00  0.00    +0.045 A 
ATOM     15  C13 UNL     1      14.290   1.378  20.872  0.00  0.00    +0.007 A 
ATOM     16  C14 UNL     1      15.568   0.769  20.407  0.00  0.00    +0.053 C 
ATOM     17  S1  UNL     1      13.254   0.760  22.019  0.00  0.00    +0.007 S 
ATOM     18  N3  UNL     1      12.014   1.861  21.921  0.00  0.00    -0.206 NA
ENDBRANCH  10  13
ENDBRANCH   6   9
BRANCH   7  19
ATOM     19  O3  UNL     1       7.473   4.018  21.401  0.00  0.00    -0.388 OA
ATOM     20  H21 UNL     1       7.136   3.652  22.259  0.00  0.00    +0.210 HD
ENDBRANCH   7  19
BRANCH   1  21
ATOM     21  C5  UNL     1       9.021   8.796  24.823  0.00  0.00    +0.100 C 
BRANCH  21  22
ATOM     22  C4  UNL     1       8.160   9.617  23.854  0.00  0.00    +0.039 C 
BRANCH  22  24
ATOM     23  C1  UNL     1       8.417  10.398  21.520  0.00  0.00    +0.007 C 
ATOM     24  C2  UNL     1       8.992  10.140  22.705  0.00  0.00    -0.079 C 
ATOM     25  C3  UNL     1      10.471  10.366  22.875  0.00  0.00    +0.038 C 
ENDBRANCH  22  24
ENDBRANCH  21  22
ENDBRANCH   1  21
TORSDOF 6
ENDMDL
