REMARK  Name = /home/qwerty/github/datacon2025hack/step_04_hit_selection/docking/ligands/lig_559.pdb
REMARK  3 active torsions:
REMARK  status: ('A' for Active; 'I' for Inactive)
REMARK    1  A    between atoms: C1_2  and  C2_3
REMARK    2  A    between atoms: C4_6  and  C5_7
REMARK    3  A    between atoms: C17_23  and  C18_24
REMARK                            x       y       z     vdW  Elec       q    Type
REMARK                         _______ _______ _______ _____ _____    ______ ____
ROOT
ATOM      1  O1  UNL     1       1.648   1.104  -3.305  0.00  0.00    -0.268 OA
ATOM      2  C1  UNL     1       1.977   0.796  -2.126  0.00  0.00    +0.265 C 
ATOM      3  N2  UNL     1       1.068   1.078  -1.041  0.00  0.00    -0.296 N 
ATOM      4  C9  UNL     1       0.121   2.196  -1.143  0.00  0.00    +0.110 C 
ATOM      5  C10 UNL     1      -1.336   1.695  -1.114  0.00  0.00    +0.046 C 
ATOM      6  C11 UNL     1      -1.507   0.345  -0.348  0.00  0.00    +0.048 C 
ATOM      7  C12 UNL     1      -0.428   0.200   0.746  0.00  0.00    +0.046 C 
ATOM      8  C13 UNL     1       0.978   0.178   0.122  0.00  0.00    +0.110 C 
ATOM      9  N3  UNL     1      -1.419  -0.822  -1.266  0.00  0.00    -0.303 NA
ATOM     10  C14 UNL     1      -2.757  -1.431  -1.360  0.00  0.00    +0.117 C 
ATOM     11  C15 UNL     1      -3.579  -0.751  -0.341  0.00  0.00    -0.028 A 
ATOM     12  C16 UNL     1      -4.894  -1.039   0.029  0.00  0.00    +0.017 A 
ATOM     13  C17 UNL     1      -5.508  -0.252   1.028  0.00  0.00    +0.055 A 
ATOM     14  C19 UNL     1      -4.763   0.776   1.651  0.00  0.00    +0.013 A 
ATOM     15  C20 UNL     1      -3.443   1.041   1.253  0.00  0.00    +0.006 A 
ATOM     16  C21 UNL     1      -2.874   0.256   0.245  0.00  0.00    -0.023 A 
ATOM     17  H13 UNL     1      -1.084  -0.556  -2.222  0.00  0.00    +0.123 HD
ENDROOT
BRANCH   2  18
ATOM     18  C2  UNL     1       3.291   0.159  -1.897  0.00  0.00    +0.133 A 
ATOM     19  C3  UNL     1       4.095  -0.319  -2.933  0.00  0.00    +0.080 A 
ATOM     20  S1  UNL     1       5.503  -0.939  -2.254  0.00  0.00    -0.074 S 
ATOM     21  C4  UNL     1       5.040  -0.569  -0.680  0.00  0.00    +0.116 A 
ATOM     22  N1  UNL     1       3.827   0.023  -0.653  0.00  0.00    -0.234 NA
BRANCH  21  23
ATOM     23  C5  UNL     1       5.832  -0.844   0.525  0.00  0.00    +0.044 A 
ATOM     24  C6  UNL     1       5.453  -0.551   1.829  0.00  0.00    +0.018 A 
ATOM     25  C7  UNL     1       6.410  -0.928   2.779  0.00  0.00    +0.008 A 
ATOM     26  C8  UNL     1       7.541  -1.518   2.229  0.00  0.00    +0.046 A 
ATOM     27  S2  UNL     1       7.350  -1.570   0.559  0.00  0.00    -0.095 S 
ENDBRANCH  21  23
ENDBRANCH   2  18
BRANCH  13  28
ATOM     28  C18 UNL     1      -6.908  -0.566   1.491  0.00  0.00    +0.417 C 
ATOM     29  F1  UNL     1      -7.655  -1.108   0.459  0.00  0.00    -0.166 F 
ATOM     30  F2  UNL     1      -6.850  -1.476   2.531  0.00  0.00    -0.166 F 
ATOM     31  F3  UNL     1      -7.545   0.581   1.930  0.00  0.00    -0.166 F 
ENDBRANCH  13  28
TORSDOF 3
