MODEL 1
REMARK VINA RESULT:    -6.414      0.000      0.000
REMARK INTER + INTRA:          -9.795
REMARK INTER:                  -9.039
REMARK INTRA:                  -0.756
REMARK UNBOUND:                -0.756
REMARK  Name = /home/qwerty/github/datacon2025hack/step_04_hit_selection/docking/ligands/lig_609.pdb
REMARK  9 active torsions:
REMARK  status: ('A' for Active; 'I' for Inactive)
REMARK    1  A    between atoms: C1_1  and  C2_2
REMARK    2  A    between atoms: C2_2  and  C3_3
REMARK    3  A    between atoms: C2_2  and  N1_10
REMARK    4  A    between atoms: N1_10  and  C9_11
REMARK    5  A    between atoms: C10_12  and  C11_14
REMARK    6  A    between atoms: C11_14  and  S1_15
REMARK    7  A    between atoms: S1_15  and  C12_17
REMARK    8  A    between atoms: C12_17  and  C13_18
REMARK    9  A    between atoms: C15_21  and  C16_22
REMARK                            x       y       z     vdW  Elec       q    Type
REMARK                         _______ _______ _______ _____ _____    ______ ____
ROOT
ATOM      1  C11 UNL     1      21.373   4.009  30.838  0.00  0.00    +0.199 C 
ENDROOT
BRANCH   1   4
ATOM      2  N1  UNL     1      21.457   1.591  29.941  0.00  0.00    -0.297 N 
ATOM      3  C9  UNL     1      21.019   0.249  30.342  0.00  0.00    +0.132 C 
ATOM      4  C10 UNL     1      20.707   2.721  30.432  0.00  0.00    +0.228 C 
ATOM      5  O1  UNL     1      19.458   2.617  30.578  0.00  0.00    -0.275 OA
BRANCH   2   7
ATOM      6  C1  UNL     1      23.578   0.594  29.147  0.00  0.00    +0.033 C 
ATOM      7  C2  UNL     1      22.597   1.769  29.020  0.00  0.00    +0.103 C 
BRANCH   7   8
ATOM      8  C3  UNL     1      22.105   2.031  27.604  0.00  0.00    -0.027 A 
ATOM      9  C4  UNL     1      22.690   3.080  26.872  0.00  0.00    +0.007 A 
ATOM     10  C5  UNL     1      22.251   3.382  25.581  0.00  0.00    +0.020 A 
ATOM     11  C6  UNL     1      21.211   2.647  25.005  0.00  0.00    +0.041 A 
ATOM     12 CL1  UNL     1      20.659   3.030  23.384  0.00  0.00    -0.084 Cl
ATOM     13  C7  UNL     1      20.609   1.613  25.724  0.00  0.00    +0.020 A 
ATOM     14  C8  UNL     1      21.044   1.307  27.017  0.00  0.00    +0.007 A 
ENDBRANCH   7   8
ENDBRANCH   2   7
ENDBRANCH   1   4
BRANCH   1  15
ATOM     15  S1  UNL     1      21.436   4.185  32.639  0.00  0.00    +0.037 S 
ATOM     16  O2  UNL     1      21.867   2.815  33.145  0.00  0.00    -0.256 OA
BRANCH  15  17
ATOM     17  C12 UNL     1      22.855   5.250  32.979  0.00  0.00    +0.160 C 
BRANCH  17  18
ATOM     18  C13 UNL     1      22.695   5.888  34.320  0.00  0.00    +0.061 A 
ATOM     19  C14 UNL     1      23.760   6.105  35.189  0.00  0.00    +0.071 A 
ATOM     20  S2  UNL     1      23.156   6.888  36.547  0.00  0.00    -0.075 S 
ATOM     21  C15 UNL     1      21.571   6.931  35.971  0.00  0.00    +0.109 A 
ATOM     22  N2  UNL     1      21.492   6.355  34.751  0.00  0.00    -0.243 NA
BRANCH  21  23
ATOM     23  C16 UNL     1      20.408   7.516  36.676  0.00  0.00    +0.007 A 
ATOM     24  C17 UNL     1      19.439   6.694  37.284  0.00  0.00    +0.010 A 
ATOM     25  C18 UNL     1      18.344   7.259  37.944  0.00  0.00    +0.001 A 
ATOM     26  C19 UNL     1      18.203   8.647  38.006  0.00  0.00    +0.000 A 
ATOM     27  C20 UNL     1      19.157   9.473  37.410  0.00  0.00    +0.001 A 
ATOM     28  C21 UNL     1      20.255   8.914  36.748  0.00  0.00    +0.010 A 
ENDBRANCH  21  23
ENDBRANCH  17  18
ENDBRANCH  15  17
ENDBRANCH   1  15
TORSDOF 7
ENDMDL
MODEL 2
REMARK VINA RESULT:    -6.329     13.465     15.709
REMARK INTER + INTRA:          -9.676
REMARK INTER:                  -6.676
REMARK INTRA:                  -2.999
REMARK UNBOUND:                -0.756
REMARK  Name = /home/qwerty/github/datacon2025hack/step_04_hit_selection/docking/ligands/lig_609.pdb
REMARK  9 active torsions:
REMARK  status: ('A' for Active; 'I' for Inactive)
REMARK    1  A    between atoms: C1_1  and  C2_2
REMARK    2  A    between atoms: C2_2  and  C3_3
REMARK    3  A    between atoms: C2_2  and  N1_10
REMARK    4  A    between atoms: N1_10  and  C9_11
REMARK    5  A    between atoms: C10_12  and  C11_14
REMARK    6  A    between atoms: C11_14  and  S1_15
REMARK    7  A    between atoms: S1_15  and  C12_17
REMARK    8  A    between atoms: C12_17  and  C13_18
REMARK    9  A    between atoms: C15_21  and  C16_22
REMARK                            x       y       z     vdW  Elec       q    Type
REMARK                         _______ _______ _______ _____ _____    ______ ____
ROOT
ATOM      1  C11 UNL     1      10.609   2.095  21.762  0.00  0.00    +0.199 C 
ENDROOT
BRANCH   1   4
ATOM      2  N1  UNL     1       8.869   3.718  22.759  0.00  0.00    -0.297 N 
ATOM      3  C9  UNL     1       7.655   3.666  23.582  0.00  0.00    +0.132 C 
ATOM      4  C10 UNL     1       9.843   2.667  22.926  0.00  0.00    +0.228 C 
ATOM      5  O1  UNL     1      10.027   2.170  24.071  0.00  0.00    -0.275 OA
BRANCH   2   7
ATOM      6  C1  UNL     1       8.115   4.787  20.658  0.00  0.00    +0.033 C 
ATOM      7  C2  UNL     1       9.105   4.842  21.832  0.00  0.00    +0.103 C 
BRANCH   7   8
ATOM      8  C3  UNL     1       9.116   6.164  22.586  0.00  0.00    -0.027 A 
ATOM      9  C4  UNL     1      10.012   6.316  23.660  0.00  0.00    +0.007 A 
ATOM     10  C5  UNL     1      10.038   7.498  24.406  0.00  0.00    +0.020 A 
ATOM     11  C6  UNL     1       9.161   8.541  24.097  0.00  0.00    +0.041 A 
ATOM     12 CL1  UNL     1       9.194  10.022  25.037  0.00  0.00    -0.084 Cl
ATOM     13  C7  UNL     1       8.255   8.399  23.044  0.00  0.00    +0.020 A 
ATOM     14  C8  UNL     1       8.224   7.218  22.296  0.00  0.00    +0.007 A 
ENDBRANCH   7   8
ENDBRANCH   2   7
ENDBRANCH   1   4
BRANCH   1  15
ATOM     15  S1  UNL     1      12.398   2.194  22.032  0.00  0.00    +0.037 S 
ATOM     16  O2  UNL     1      12.904   0.779  21.786  0.00  0.00    -0.256 OA
BRANCH  15  17
ATOM     17  C12 UNL     1      13.051   3.146  20.642  0.00  0.00    +0.160 C 
BRANCH  17  18
ATOM     18  C13 UNL     1      13.340   4.544  21.080  0.00  0.00    +0.061 A 
ATOM     19  C14 UNL     1      14.547   4.924  21.658  0.00  0.00    +0.071 A 
ATOM     20  S2  UNL     1      14.473   6.578  21.945  0.00  0.00    -0.075 S 
ATOM     21  C15 UNL     1      12.918   6.745  21.315  0.00  0.00    +0.109 A 
ATOM     22  N2  UNL     1      12.448   5.553  20.884  0.00  0.00    -0.243 NA
BRANCH  21  23
ATOM     23  C16 UNL     1      12.149   8.007  21.227  0.00  0.00    +0.007 A 
ATOM     24  C17 UNL     1      12.391   9.068  22.120  0.00  0.00    +0.010 A 
ATOM     25  C18 UNL     1      11.655  10.254  22.028  0.00  0.00    +0.001 A 
ATOM     26  C19 UNL     1      10.673  10.394  21.045  0.00  0.00    +0.000 A 
ATOM     27  C20 UNL     1      10.424   9.350  20.152  0.00  0.00    +0.001 A 
ATOM     28  C21 UNL     1      11.157   8.162  20.240  0.00  0.00    +0.010 A 
ENDBRANCH  21  23
ENDBRANCH  17  18
ENDBRANCH  15  17
ENDBRANCH   1  15
TORSDOF 7
ENDMDL
MODEL 3
REMARK VINA RESULT:    -6.318     12.609     14.732
REMARK INTER + INTRA:          -9.659
REMARK INTER:                  -6.552
REMARK INTRA:                  -3.108
REMARK UNBOUND:                -0.756
REMARK  Name = /home/qwerty/github/datacon2025hack/step_04_hit_selection/docking/ligands/lig_609.pdb
REMARK  9 active torsions:
REMARK  status: ('A' for Active; 'I' for Inactive)
REMARK    1  A    between atoms: C1_1  and  C2_2
REMARK    2  A    between atoms: C2_2  and  C3_3
REMARK    3  A    between atoms: C2_2  and  N1_10
REMARK    4  A    between atoms: N1_10  and  C9_11
REMARK    5  A    between atoms: C10_12  and  C11_14
REMARK    6  A    between atoms: C11_14  and  S1_15
REMARK    7  A    between atoms: S1_15  and  C12_17
REMARK    8  A    between atoms: C12_17  and  C13_18
REMARK    9  A    between atoms: C15_21  and  C16_22
REMARK                            x       y       z     vdW  Elec       q    Type
REMARK                         _______ _______ _______ _____ _____    ______ ____
ROOT
ATOM      1  C11 UNL     1      14.612  13.565  29.904  0.00  0.00    +0.199 C 
ENDROOT
BRANCH   1   4
ATOM      2  N1  UNL     1      12.374  13.828  31.159  0.00  0.00    -0.297 N 
ATOM      3  C9  UNL     1      11.854  14.487  32.363  0.00  0.00    +0.132 C 
ATOM      4  C10 UNL     1      13.526  14.410  30.515  0.00  0.00    +0.228 C 
ATOM      5  O1  UNL     1      13.662  15.664  30.507  0.00  0.00    -0.275 OA
BRANCH   2   7
ATOM      6  C1  UNL     1      11.321  11.660  31.718  0.00  0.00    +0.033 C 
ATOM      7  C2  UNL     1      11.700  12.640  30.599  0.00  0.00    +0.103 C 
BRANCH   7   8
ATOM      8  C3  UNL     1      10.541  13.055  29.704  0.00  0.00    -0.027 A 
ATOM      9  C4  UNL     1      10.830  13.683  28.478  0.00  0.00    +0.007 A 
ATOM     10  C5  UNL     1       9.801  14.114  27.636  0.00  0.00    +0.020 A 
ATOM     11  C6  UNL     1       8.467  13.933  28.012  0.00  0.00    +0.041 A 
ATOM     12 CL1  UNL     1       7.176  14.477  26.955  0.00  0.00    -0.084 Cl
ATOM     13  C7  UNL     1       8.164  13.326  29.232  0.00  0.00    +0.020 A 
ATOM     14  C8  UNL     1       9.190  12.895  30.079  0.00  0.00    +0.007 A 
ENDBRANCH   7   8
ENDBRANCH   2   7
ENDBRANCH   1   4
BRANCH   1  15
ATOM     15  S1  UNL     1      14.637  13.720  28.099  0.00  0.00    +0.037 S 
ATOM     16  O2  UNL     1      15.732  14.741  27.816  0.00  0.00    -0.256 OA
BRANCH  15  17
ATOM     17  C12 UNL     1      15.313  12.163  27.482  0.00  0.00    +0.160 C 
BRANCH  17  18
ATOM     18  C13 UNL     1      14.309  11.072  27.663  0.00  0.00    +0.061 A 
ATOM     19  C14 UNL     1      14.648   9.792  28.093  0.00  0.00    +0.071 A 
ATOM     20  S2  UNL     1      13.227   8.904  28.212  0.00  0.00    -0.075 S 
ATOM     21  C15 UNL     1      12.239  10.182  27.726  0.00  0.00    +0.109 A 
ATOM     22  N2  UNL     1      12.979  11.286  27.472  0.00  0.00    -0.243 NA
BRANCH  21  23
ATOM     23  C16 UNL     1      10.766  10.137  27.591  0.00  0.00    +0.007 A 
ATOM     24  C17 UNL     1      10.124  10.669  26.456  0.00  0.00    +0.010 A 
ATOM     25  C18 UNL     1       8.731  10.622  26.343  0.00  0.00    +0.001 A 
ATOM     26  C19 UNL     1       7.964  10.045  27.358  0.00  0.00    +0.000 A 
ATOM     27  C20 UNL     1       8.588   9.513  28.488  0.00  0.00    +0.001 A 
ATOM     28  C21 UNL     1       9.981   9.557  28.606  0.00  0.00    +0.010 A 
ENDBRANCH  21  23
ENDBRANCH  17  18
ENDBRANCH  15  17
ENDBRANCH   1  15
TORSDOF 7
ENDMDL
MODEL 4
REMARK VINA RESULT:    -6.258     12.615     15.272
REMARK INTER + INTRA:          -9.576
REMARK INTER:                  -6.393
REMARK INTRA:                  -3.183
REMARK UNBOUND:                -0.756
REMARK  Name = /home/qwerty/github/datacon2025hack/step_04_hit_selection/docking/ligands/lig_609.pdb
REMARK  9 active torsions:
REMARK  status: ('A' for Active; 'I' for Inactive)
REMARK    1  A    between atoms: C1_1  and  C2_2
REMARK    2  A    between atoms: C2_2  and  C3_3
REMARK    3  A    between atoms: C2_2  and  N1_10
REMARK    4  A    between atoms: N1_10  and  C9_11
REMARK    5  A    between atoms: C10_12  and  C11_14
REMARK    6  A    between atoms: C11_14  and  S1_15
REMARK    7  A    between atoms: S1_15  and  C12_17
REMARK    8  A    between atoms: C12_17  and  C13_18
REMARK    9  A    between atoms: C15_21  and  C16_22
REMARK                            x       y       z     vdW  Elec       q    Type
REMARK                         _______ _______ _______ _____ _____    ______ ____
ROOT
ATOM      1  C11 UNL     1      14.018   4.438  22.650  0.00  0.00    +0.199 C 
ENDROOT
BRANCH   1   4
ATOM      2  N1  UNL     1      14.238   7.004  22.794  0.00  0.00    -0.297 N 
ATOM      3  C9  UNL     1      15.293   8.017  22.918  0.00  0.00    +0.132 C 
ATOM      4  C10 UNL     1      14.576   5.750  22.166  0.00  0.00    +0.228 C 
ATOM      5  O1  UNL     1      15.405   5.739  21.215  0.00  0.00    -0.275 OA
BRANCH   2   7
ATOM      6  C1  UNL     1      12.867   7.742  24.718  0.00  0.00    +0.033 C 
ATOM      7  C2  UNL     1      12.863   7.287  23.251  0.00  0.00    +0.103 C 
BRANCH   7   8
ATOM      8  C3  UNL     1      12.169   8.247  22.294  0.00  0.00    -0.027 A 
ATOM      9  C4  UNL     1      11.752   7.762  21.041  0.00  0.00    +0.007 A 
ATOM     10  C5  UNL     1      11.141   8.610  20.114  0.00  0.00    +0.020 A 
ATOM     11  C6  UNL     1      10.948   9.960  20.421  0.00  0.00    +0.041 A 
ATOM     12 CL1  UNL     1      10.183  11.024  19.255  0.00  0.00    -0.084 Cl
ATOM     13  C7  UNL     1      11.371  10.460  21.655  0.00  0.00    +0.020 A 
ATOM     14  C8  UNL     1      11.984   9.616  22.585  0.00  0.00    +0.007 A 
ENDBRANCH   7   8
ENDBRANCH   2   7
ENDBRANCH   1   4
BRANCH   1  15
ATOM     15  S1  UNL     1      12.798   3.768  21.491  0.00  0.00    +0.037 S 
ATOM     16  O2  UNL     1      13.569   2.741  20.671  0.00  0.00    -0.256 OA
BRANCH  15  17
ATOM     17  C12 UNL     1      11.665   2.777  22.489  0.00  0.00    +0.160 C 
BRANCH  17  18
ATOM     18  C13 UNL     1      10.380   3.515  22.675  0.00  0.00    +0.061 A 
ATOM     19  C14 UNL     1       9.167   2.878  22.916  0.00  0.00    +0.071 A 
ATOM     20  S2  UNL     1       7.999   4.070  23.115  0.00  0.00    -0.075 S 
ATOM     21  C15 UNL     1       9.083   5.345  22.899  0.00  0.00    +0.109 A 
ATOM     22  N2  UNL     1      10.331   4.875  22.676  0.00  0.00    -0.243 NA
BRANCH  21  23
ATOM     23  C16 UNL     1       8.747   6.786  22.945  0.00  0.00    +0.007 A 
ATOM     24  C17 UNL     1       8.131   7.423  21.852  0.00  0.00    +0.010 A 
ATOM     25  C18 UNL     1       7.823   8.786  21.908  0.00  0.00    +0.001 A 
ATOM     26  C19 UNL     1       8.123   9.526  23.054  0.00  0.00    +0.000 A 
ATOM     27  C20 UNL     1       8.732   8.905  24.146  0.00  0.00    +0.001 A 
ATOM     28  C21 UNL     1       9.043   7.543  24.095  0.00  0.00    +0.010 A 
ENDBRANCH  21  23
ENDBRANCH  17  18
ENDBRANCH  15  17
ENDBRANCH   1  15
TORSDOF 7
ENDMDL
MODEL 5
REMARK VINA RESULT:    -6.136      4.827      7.030
REMARK INTER + INTRA:          -9.404
REMARK INTER:                  -6.467
REMARK INTRA:                  -2.937
REMARK UNBOUND:                -0.756
REMARK  Name = /home/qwerty/github/datacon2025hack/step_04_hit_selection/docking/ligands/lig_609.pdb
REMARK  9 active torsions:
REMARK  status: ('A' for Active; 'I' for Inactive)
REMARK    1  A    between atoms: C1_1  and  C2_2
REMARK    2  A    between atoms: C2_2  and  C3_3
REMARK    3  A    between atoms: C2_2  and  N1_10
REMARK    4  A    between atoms: N1_10  and  C9_11
REMARK    5  A    between atoms: C10_12  and  C11_14
REMARK    6  A    between atoms: C11_14  and  S1_15
REMARK    7  A    between atoms: S1_15  and  C12_17
REMARK    8  A    between atoms: C12_17  and  C13_18
REMARK    9  A    between atoms: C15_21  and  C16_22
REMARK                            x       y       z     vdW  Elec       q    Type
REMARK                         _______ _______ _______ _____ _____    ______ ____
ROOT
ATOM      1  C11 UNL     1      22.372   3.748  32.743  0.00  0.00    +0.199 C 
ENDROOT
BRANCH   1   4
ATOM      2  N1  UNL     1      22.861   6.260  33.065  0.00  0.00    -0.297 N 
ATOM      3  C9  UNL     1      23.667   7.317  32.442  0.00  0.00    +0.132 C 
ATOM      4  C10 UNL     1      22.427   5.164  32.234  0.00  0.00    +0.228 C 
ATOM      5  O1  UNL     1      22.133   5.383  31.027  0.00  0.00    -0.275 OA
BRANCH   2   7
ATOM      6  C1  UNL     1      23.701   6.276  35.392  0.00  0.00    +0.033 C 
ATOM      7  C2  UNL     1      22.465   6.351  34.484  0.00  0.00    +0.103 C 
BRANCH   7   8
ATOM      8  C3  UNL     1      21.585   7.571  34.716  0.00  0.00    -0.027 A 
ATOM      9  C4  UNL     1      20.440   7.735  33.915  0.00  0.00    +0.007 A 
ATOM     10  C5  UNL     1      19.617   8.854  34.065  0.00  0.00    +0.020 A 
ATOM     11  C6  UNL     1      19.932   9.833  35.012  0.00  0.00    +0.041 A 
ATOM     12 CL1  UNL     1      18.899  11.239  35.198  0.00  0.00    -0.084 Cl
ATOM     13  C7  UNL     1      21.074   9.692  35.805  0.00  0.00    +0.020 A 
ATOM     14  C8  UNL     1      21.900   8.574  35.657  0.00  0.00    +0.007 A 
ENDBRANCH   7   8
ENDBRANCH   2   7
ENDBRANCH   1   4
BRANCH   1  15
ATOM     15  S1  UNL     1      20.962   2.848  32.049  0.00  0.00    +0.037 S 
ATOM     16  O2  UNL     1      21.585   1.690  31.279  0.00  0.00    -0.256 OA
BRANCH  15  17
ATOM     17  C12 UNL     1      20.146   2.057  33.453  0.00  0.00    +0.160 C 
BRANCH  17  18
ATOM     18  C13 UNL     1      19.068   2.949  33.977  0.00  0.00    +0.061 A 
ATOM     19  C14 UNL     1      17.717   2.739  33.719  0.00  0.00    +0.071 A 
ATOM     20  S2  UNL     1      16.855   3.929  34.534  0.00  0.00    -0.075 S 
ATOM     21  C15 UNL     1      18.230   4.653  35.190  0.00  0.00    +0.109 A 
ATOM     22  N2  UNL     1      19.346   3.999  34.797  0.00  0.00    -0.243 NA
BRANCH  21  23
ATOM     23  C16 UNL     1      18.246   5.837  36.079  0.00  0.00    +0.007 A 
ATOM     24  C17 UNL     1      17.246   6.823  35.993  0.00  0.00    +0.010 A 
ATOM     25  C18 UNL     1      17.275   7.938  36.837  0.00  0.00    +0.001 A 
ATOM     26  C19 UNL     1      18.299   8.079  37.776  0.00  0.00    +0.000 A 
ATOM     27  C20 UNL     1      19.296   7.107  37.873  0.00  0.00    +0.001 A 
ATOM     28  C21 UNL     1      19.272   5.990  37.031  0.00  0.00    +0.010 A 
ENDBRANCH  21  23
ENDBRANCH  17  18
ENDBRANCH  15  17
ENDBRANCH   1  15
TORSDOF 7
ENDMDL
MODEL 6
REMARK VINA RESULT:    -6.112      8.931     11.576
REMARK INTER + INTRA:          -9.370
REMARK INTER:                  -6.260
REMARK INTRA:                  -3.110
REMARK UNBOUND:                -0.756
REMARK  Name = /home/qwerty/github/datacon2025hack/step_04_hit_selection/docking/ligands/lig_609.pdb
REMARK  9 active torsions:
REMARK  status: ('A' for Active; 'I' for Inactive)
REMARK    1  A    between atoms: C1_1  and  C2_2
REMARK    2  A    between atoms: C2_2  and  C3_3
REMARK    3  A    between atoms: C2_2  and  N1_10
REMARK    4  A    between atoms: N1_10  and  C9_11
REMARK    5  A    between atoms: C10_12  and  C11_14
REMARK    6  A    between atoms: C11_14  and  S1_15
REMARK    7  A    between atoms: S1_15  and  C12_17
REMARK    8  A    between atoms: C12_17  and  C13_18
REMARK    9  A    between atoms: C15_21  and  C16_22
REMARK                            x       y       z     vdW  Elec       q    Type
REMARK                         _______ _______ _______ _____ _____    ______ ____
ROOT
ATOM      1  C11 UNL     1      15.238  -0.540  23.385  0.00  0.00    +0.199 C 
ENDROOT
BRANCH   1   4
ATOM      2  N1  UNL     1      16.346   0.290  25.562  0.00  0.00    -0.297 N 
ATOM      3  C9  UNL     1      16.382  -0.062  26.987  0.00  0.00    +0.132 C 
ATOM      4  C10 UNL     1      16.080  -0.764  24.613  0.00  0.00    +0.228 C 
ATOM      5  O1  UNL     1      16.519  -1.925  24.839  0.00  0.00    -0.275 OA
BRANCH   2   7
ATOM      6  C1  UNL     1      15.751   2.670  25.881  0.00  0.00    +0.033 C 
ATOM      7  C2  UNL     1      16.630   1.668  25.117  0.00  0.00    +0.103 C 
BRANCH   7   8
ATOM      8  C3  UNL     1      18.123   1.957  25.188  0.00  0.00    -0.027 A 
ATOM      9  C4  UNL     1      18.596   2.800  26.209  0.00  0.00    +0.007 A 
ATOM     10  C5  UNL     1      19.953   3.123  26.297  0.00  0.00    +0.020 A 
ATOM     11  C6  UNL     1      20.856   2.617  25.358  0.00  0.00    +0.041 A 
ATOM     12 CL1  UNL     1      22.558   3.026  25.469  0.00  0.00    -0.084 Cl
ATOM     13  C7  UNL     1      20.399   1.791  24.329  0.00  0.00    +0.020 A 
ATOM     14  C8  UNL     1      19.042   1.466  24.236  0.00  0.00    +0.007 A 
ENDBRANCH   7   8
ENDBRANCH   2   7
ENDBRANCH   1   4
BRANCH   1  15
ATOM     15  S1  UNL     1      16.263  -0.247  21.921  0.00  0.00    +0.037 S 
ATOM     16  O2  UNL     1      16.298  -1.588  21.200  0.00  0.00    -0.256 OA
BRANCH  15  17
ATOM     17  C12 UNL     1      15.280   0.812  20.838  0.00  0.00    +0.160 C 
BRANCH  17  18
ATOM     18  C13 UNL     1      15.918   2.159  20.736  0.00  0.00    +0.061 A 
ATOM     19  C14 UNL     1      15.531   3.114  19.801  0.00  0.00    +0.071 A 
ATOM     20  S2  UNL     1      16.459   4.489  20.066  0.00  0.00    -0.075 S 
ATOM     21  C15 UNL     1      17.306   3.821  21.363  0.00  0.00    +0.109 A 
ATOM     22  N2  UNL     1      16.890   2.557  21.602  0.00  0.00    -0.243 NA
BRANCH  21  23
ATOM     23  C16 UNL     1      18.358   4.499  22.154  0.00  0.00    +0.007 A 
ATOM     24  C17 UNL     1      19.711   4.424  21.775  0.00  0.00    +0.010 A 
ATOM     25  C18 UNL     1      20.696   5.067  22.532  0.00  0.00    +0.001 A 
ATOM     26  C19 UNL     1      20.341   5.791  23.673  0.00  0.00    +0.000 A 
ATOM     27  C20 UNL     1      19.001   5.875  24.058  0.00  0.00    +0.001 A 
ATOM     28  C21 UNL     1      18.013   5.234  23.304  0.00  0.00    +0.010 A 
ENDBRANCH  21  23
ENDBRANCH  17  18
ENDBRANCH  15  17
ENDBRANCH   1  15
TORSDOF 7
ENDMDL
MODEL 7
REMARK VINA RESULT:    -6.097      9.993     12.133
REMARK INTER + INTRA:          -9.349
REMARK INTER:                  -6.135
REMARK INTRA:                  -3.214
REMARK UNBOUND:                -0.756
REMARK  Name = /home/qwerty/github/datacon2025hack/step_04_hit_selection/docking/ligands/lig_609.pdb
REMARK  9 active torsions:
REMARK  status: ('A' for Active; 'I' for Inactive)
REMARK    1  A    between atoms: C1_1  and  C2_2
REMARK    2  A    between atoms: C2_2  and  C3_3
REMARK    3  A    between atoms: C2_2  and  N1_10
REMARK    4  A    between atoms: N1_10  and  C9_11
REMARK    5  A    between atoms: C10_12  and  C11_14
REMARK    6  A    between atoms: C11_14  and  S1_15
REMARK    7  A    between atoms: S1_15  and  C12_17
REMARK    8  A    between atoms: C12_17  and  C13_18
REMARK    9  A    between atoms: C15_21  and  C16_22
REMARK                            x       y       z     vdW  Elec       q    Type
REMARK                         _______ _______ _______ _____ _____    ______ ____
ROOT
ATOM      1  C11 UNL     1      11.645  13.033  34.001  0.00  0.00    +0.199 C 
ENDROOT
BRANCH   1   4
ATOM      2  N1  UNL     1      13.848  12.949  32.660  0.00  0.00    -0.297 N 
ATOM      3  C9  UNL     1      14.384  13.439  31.385  0.00  0.00    +0.132 C 
ATOM      4  C10 UNL     1      12.785  13.702  33.280  0.00  0.00    +0.228 C 
ATOM      5  O1  UNL     1      12.777  14.959  33.175  0.00  0.00    -0.275 OA
BRANCH   2   7
ATOM      6  C1  UNL     1      14.318  10.536  32.378  0.00  0.00    +0.033 C 
ATOM      7  C2  UNL     1      14.420  11.753  33.309  0.00  0.00    +0.103 C 
BRANCH   7   8
ATOM      8  C3  UNL     1      15.825  12.042  33.819  0.00  0.00    -0.027 A 
ATOM      9  C4  UNL     1      16.884  11.236  33.362  0.00  0.00    +0.007 A 
ATOM     10  C5  UNL     1      18.187  11.439  33.825  0.00  0.00    +0.020 A 
ATOM     11  C6  UNL     1      18.449  12.443  34.761  0.00  0.00    +0.041 A 
ATOM     12 CL1  UNL     1      20.085  12.694  35.344  0.00  0.00    -0.084 Cl
ATOM     13  C7  UNL     1      17.406  13.241  35.236  0.00  0.00    +0.020 A 
ATOM     14  C8  UNL     1      16.101  13.041  34.777  0.00  0.00    +0.007 A 
ENDBRANCH   7   8
ENDBRANCH   2   7
ENDBRANCH   1   4
BRANCH   1  15
ATOM     15  S1  UNL     1      11.430  13.701  35.670  0.00  0.00    +0.037 S 
ATOM     16  O2  UNL     1      10.172  14.556  35.583  0.00  0.00    -0.256 OA
BRANCH  15  17
ATOM     17  C12 UNL     1      10.943  12.301  36.701  0.00  0.00    +0.160 C 
BRANCH  17  18
ATOM     18  C13 UNL     1      11.829  11.133  36.414  0.00  0.00    +0.061 A 
ATOM     19  C14 UNL     1      11.378   9.972  35.792  0.00  0.00    +0.071 A 
ATOM     20  S2  UNL     1      12.697   8.946  35.616  0.00  0.00    -0.075 S 
ATOM     21  C15 UNL     1      13.787  10.020  36.324  0.00  0.00    +0.109 A 
ATOM     22  N2  UNL     1      13.160  11.159  36.697  0.00  0.00    -0.243 NA
BRANCH  21  23
ATOM     23  C16 UNL     1      15.235   9.783  36.521  0.00  0.00    +0.007 A 
ATOM     24  C17 UNL     1      15.980  10.557  37.431  0.00  0.00    +0.010 A 
ATOM     25  C18 UNL     1      17.348  10.324  37.604  0.00  0.00    +0.001 A 
ATOM     26  C19 UNL     1      17.986   9.318  36.875  0.00  0.00    +0.000 A 
ATOM     27  C20 UNL     1      17.258   8.542  35.971  0.00  0.00    +0.001 A 
ATOM     28  C21 UNL     1      15.890   8.771  35.793  0.00  0.00    +0.010 A 
ENDBRANCH  21  23
ENDBRANCH  17  18
ENDBRANCH  15  17
ENDBRANCH   1  15
TORSDOF 7
ENDMDL
MODEL 8
REMARK VINA RESULT:    -6.033      7.698      9.919
REMARK INTER + INTRA:          -9.258
REMARK INTER:                  -6.065
REMARK INTRA:                  -3.194
REMARK UNBOUND:                -0.756
REMARK  Name = /home/qwerty/github/datacon2025hack/step_04_hit_selection/docking/ligands/lig_609.pdb
REMARK  9 active torsions:
REMARK  status: ('A' for Active; 'I' for Inactive)
REMARK    1  A    between atoms: C1_1  and  C2_2
REMARK    2  A    between atoms: C2_2  and  C3_3
REMARK    3  A    between atoms: C2_2  and  N1_10
REMARK    4  A    between atoms: N1_10  and  C9_11
REMARK    5  A    between atoms: C10_12  and  C11_14
REMARK    6  A    between atoms: C11_14  and  S1_15
REMARK    7  A    between atoms: S1_15  and  C12_17
REMARK    8  A    between atoms: C12_17  and  C13_18
REMARK    9  A    between atoms: C15_21  and  C16_22
REMARK                            x       y       z     vdW  Elec       q    Type
REMARK                         _______ _______ _______ _____ _____    ______ ____
ROOT
ATOM      1  C11 UNL     1      15.431   1.280  23.467  0.00  0.00    +0.199 C 
ENDROOT
BRANCH   1   4
ATOM      2  N1  UNL     1      16.357   0.413  25.713  0.00  0.00    -0.297 N 
ATOM      3  C9  UNL     1      16.103  -0.674  26.666  0.00  0.00    +0.132 C 
ATOM      4  C10 UNL     1      16.013   0.192  24.330  0.00  0.00    +0.228 C 
ATOM      5  O1  UNL     1      16.152  -0.960  23.835  0.00  0.00    -0.275 OA
BRANCH   2   7
ATOM      6  C1  UNL     1      16.035   2.476  27.042  0.00  0.00    +0.033 C 
ATOM      7  C2  UNL     1      16.994   1.669  26.154  0.00  0.00    +0.103 C 
BRANCH   7   8
ATOM      8  C3  UNL     1      18.351   1.388  26.783  0.00  0.00    -0.027 A 
ATOM      9  C4  UNL     1      18.549   1.733  28.133  0.00  0.00    +0.007 A 
ATOM     10  C5  UNL     1      19.787   1.526  28.748  0.00  0.00    +0.020 A 
ATOM     11  C6  UNL     1      20.849   0.982  28.020  0.00  0.00    +0.041 A 
ATOM     12 CL1  UNL     1      22.403   0.727  28.794  0.00  0.00    -0.084 Cl
ATOM     13  C7  UNL     1      20.673   0.650  26.676  0.00  0.00    +0.020 A 
ATOM     14  C8  UNL     1      19.437   0.856  26.056  0.00  0.00    +0.007 A 
ENDBRANCH   7   8
ENDBRANCH   2   7
ENDBRANCH   1   4
BRANCH   1  15
ATOM     15  S1  UNL     1      16.562   1.743  22.130  0.00  0.00    +0.037 S 
ATOM     16  O2  UNL     1      15.914   1.190  20.867  0.00  0.00    -0.256 OA
BRANCH  15  17
ATOM     17  C12 UNL     1      16.409   3.534  21.957  0.00  0.00    +0.160 C 
BRANCH  17  18
ATOM     18  C13 UNL     1      17.091   4.211  23.101  0.00  0.00    +0.061 A 
ATOM     19  C14 UNL     1      16.501   5.232  23.840  0.00  0.00    +0.071 A 
ATOM     20  S2  UNL     1      17.578   5.667  25.054  0.00  0.00    -0.075 S 
ATOM     21  C15 UNL     1      18.742   4.534  24.601  0.00  0.00    +0.109 A 
ATOM     22  N2  UNL     1      18.322   3.822  23.530  0.00  0.00    -0.243 NA
BRANCH  21  23
ATOM     23  C16 UNL     1      20.048   4.320  25.264  0.00  0.00    +0.007 A 
ATOM     24  C17 UNL     1      20.248   4.685  26.608  0.00  0.00    +0.010 A 
ATOM     25  C18 UNL     1      21.488   4.480  27.222  0.00  0.00    +0.001 A 
ATOM     26  C19 UNL     1      22.540   3.908  26.502  0.00  0.00    +0.000 A 
ATOM     27  C20 UNL     1      22.354   3.540  25.168  0.00  0.00    +0.001 A 
ATOM     28  C21 UNL     1      21.116   3.743  24.550  0.00  0.00    +0.010 A 
ENDBRANCH  21  23
ENDBRANCH  17  18
ENDBRANCH  15  17
ENDBRANCH   1  15
TORSDOF 7
ENDMDL
MODEL 9
REMARK VINA RESULT:    -6.024     13.776     15.467
REMARK INTER + INTRA:          -9.245
REMARK INTER:                  -6.124
REMARK INTRA:                  -3.121
REMARK UNBOUND:                -0.756
REMARK  Name = /home/qwerty/github/datacon2025hack/step_04_hit_selection/docking/ligands/lig_609.pdb
REMARK  9 active torsions:
REMARK  status: ('A' for Active; 'I' for Inactive)
REMARK    1  A    between atoms: C1_1  and  C2_2
REMARK    2  A    between atoms: C2_2  and  C3_3
REMARK    3  A    between atoms: C2_2  and  N1_10
REMARK    4  A    between atoms: N1_10  and  C9_11
REMARK    5  A    between atoms: C10_12  and  C11_14
REMARK    6  A    between atoms: C11_14  and  S1_15
REMARK    7  A    between atoms: S1_15  and  C12_17
REMARK    8  A    between atoms: C12_17  and  C13_18
REMARK    9  A    between atoms: C15_21  and  C16_22
REMARK                            x       y       z     vdW  Elec       q    Type
REMARK                         _______ _______ _______ _____ _____    ______ ____
ROOT
ATOM      1  C11 UNL     1       9.942  10.384  23.370  0.00  0.00    +0.199 C 
ENDROOT
BRANCH   1   4
ATOM      2  N1  UNL     1      10.509   8.810  21.407  0.00  0.00    -0.297 N 
ATOM      3  C9  UNL     1      10.979   8.901  20.019  0.00  0.00    +0.132 C 
ATOM      4  C10 UNL     1      10.884   9.865  22.316  0.00  0.00    +0.228 C 
ATOM      5  O1  UNL     1      12.015  10.411  22.197  0.00  0.00    -0.275 OA
BRANCH   2   7
ATOM      6  C1  UNL     1       8.410   7.542  21.077  0.00  0.00    +0.033 C 
ATOM      7  C2  UNL     1       9.725   7.646  21.863  0.00  0.00    +0.103 C 
BRANCH   7   8
ATOM      8  C3  UNL     1      10.577   6.385  21.838  0.00  0.00    -0.027 A 
ATOM      9  C4  UNL     1      10.368   5.454  20.804  0.00  0.00    +0.007 A 
ATOM     10  C5  UNL     1      11.101   4.265  20.755  0.00  0.00    +0.020 A 
ATOM     11  C6  UNL     1      12.046   3.982  21.745  0.00  0.00    +0.041 A 
ATOM     12 CL1  UNL     1      12.962   2.487  21.683  0.00  0.00    -0.084 Cl
ATOM     13  C7  UNL     1      12.253   4.889  22.787  0.00  0.00    +0.020 A 
ATOM     14  C8  UNL     1      11.522   6.079  22.841  0.00  0.00    +0.007 A 
ENDBRANCH   7   8
ENDBRANCH   2   7
ENDBRANCH   1   4
BRANCH   1  15
ATOM     15  S1  UNL     1      10.471   9.897  25.032  0.00  0.00    +0.037 S 
ATOM     16  O2  UNL     1      11.237  11.102  25.561  0.00  0.00    -0.256 OA
BRANCH  15  17
ATOM     17  C12 UNL     1       8.968   9.853  26.032  0.00  0.00    +0.160 C 
BRANCH  17  18
ATOM     18  C13 UNL     1       8.522   8.439  26.210  0.00  0.00    +0.061 A 
ATOM     19  C14 UNL     1       7.689   8.030  27.247  0.00  0.00    +0.071 A 
ATOM     20  S2  UNL     1       7.394   6.388  27.044  0.00  0.00    -0.075 S 
ATOM     21  C15 UNL     1       8.326   6.266  25.643  0.00  0.00    +0.109 A 
ATOM     22  N2  UNL     1       8.863   7.465  25.322  0.00  0.00    -0.243 NA
BRANCH  21  23
ATOM     23  C16 UNL     1       8.541   5.036  24.849  0.00  0.00    +0.007 A 
ATOM     24  C17 UNL     1       7.824   4.805  23.659  0.00  0.00    +0.010 A 
ATOM     25  C18 UNL     1       8.034   3.636  22.920  0.00  0.00    +0.001 A 
ATOM     26  C19 UNL     1       8.962   2.688  23.358  0.00  0.00    +0.000 A 
ATOM     27  C20 UNL     1       9.681   2.906  24.535  0.00  0.00    +0.001 A 
ATOM     28  C21 UNL     1       9.474   4.072  25.278  0.00  0.00    +0.010 A 
ENDBRANCH  21  23
ENDBRANCH  17  18
ENDBRANCH  15  17
ENDBRANCH   1  15
TORSDOF 7
ENDMDL
