MODEL 1
REMARK VINA RESULT:    -6.062      0.000      0.000
REMARK INTER + INTRA:          -7.781
REMARK INTER:                  -7.125
REMARK INTRA:                  -0.655
REMARK UNBOUND:                -0.655
REMARK  Name = /home/qwerty/github/datacon2025hack/step_04_hit_selection/docking/ligands/lig_49.pdb
REMARK  5 active torsions:
REMARK  status: ('A' for Active; 'I' for Inactive)
REMARK    1  A    between atoms: C1_1  and  C2_2
REMARK    2  A    between atoms: C6_6  and  C7_7
REMARK    3  A    between atoms: C11_13  and  N2_14
REMARK    4  A    between atoms: C12_15  and  C13_17
REMARK    5  A    between atoms: C13_17  and  C14_18
REMARK                            x       y       z     vdW  Elec       q    Type
REMARK                         _______ _______ _______ _____ _____    ______ ____
ROOT
ATOM      1  C7  UNL     1      20.211   3.623  23.442  0.00  0.00    +0.265 C 
ATOM      2  O1  UNL     1      20.887   2.562  23.355  0.00  0.00    -0.268 OA
ATOM      3  N1  UNL     1      20.632   4.661  24.349  0.00  0.00    -0.296 N 
ATOM      4  C8  UNL     1      19.623   5.345  25.183  0.00  0.00    +0.108 C 
ATOM      5  C9  UNL     1      20.183   5.879  26.514  0.00  0.00    +0.021 C 
ATOM      6  C10 UNL     1      20.683   4.779  27.468  0.00  0.00    +0.024 C 
ATOM      7  C11 UNL     1      21.482   3.630  26.811  0.00  0.00    +0.074 C 
ATOM      8  C18 UNL     1      22.582   4.128  25.844  0.00  0.00    +0.041 C 
ATOM      9  C19 UNL     1      22.073   4.859  24.579  0.00  0.00    +0.110 C 
ENDROOT
BRANCH   1  15
ATOM     10  C1  UNL     1      15.693   1.994  22.391  0.00  0.00    +0.065 C 
ATOM     11  C2  UNL     1      16.804   2.952  22.107  0.00  0.00    +0.039 A 
ATOM     12  C3  UNL     1      16.674   3.908  21.093  0.00  0.00    +0.023 A 
ATOM     13  C4  UNL     1      17.729   4.784  20.838  0.00  0.00    +0.004 A 
ATOM     14  C5  UNL     1      18.896   4.707  21.599  0.00  0.00    +0.033 A 
ATOM     15  C6  UNL     1      18.990   3.754  22.624  0.00  0.00    +0.126 A 
ATOM     16  N3  UNL     1      17.951   2.897  22.837  0.00  0.00    -0.247 NA
ENDBRANCH   1  15
BRANCH   7  17
ATOM     17  N2  UNL     1      22.089   2.806  27.864  0.00  0.00    -0.312 N 
ATOM     18  C12 UNL     1      21.825   1.397  27.987  0.00  0.00    +0.219 C 
ATOM     19  O2  UNL     1      21.099   0.823  27.127  0.00  0.00    -0.275 OA
ATOM     20  H14 UNL     1      22.729   3.262  28.553  0.00  0.00    +0.149 HD
BRANCH  18  21
ATOM     21  C13 UNL     1      22.414   0.589  29.134  0.00  0.00    +0.044 C 
ATOM     22  C14 UNL     1      21.632   0.741  30.455  0.00  0.00    +0.021 C 
ATOM     23  C15 UNL     1      23.923   0.803  29.318  0.00  0.00    +0.016 C 
ATOM     24  C16 UNL     1      24.172  -0.658  28.956  0.00  0.00    +0.002 C 
ATOM     25  C17 UNL     1      22.675  -0.880  28.773  0.00  0.00    +0.016 C 
ENDBRANCH  18  21
ENDBRANCH   7  17
TORSDOF 3
ENDMDL
MODEL 2
REMARK VINA RESULT:    -5.980      5.483      9.589
REMARK INTER + INTRA:          -7.683
REMARK INTER:                  -7.014
REMARK INTRA:                  -0.670
REMARK UNBOUND:                -0.655
REMARK  Name = /home/qwerty/github/datacon2025hack/step_04_hit_selection/docking/ligands/lig_49.pdb
REMARK  5 active torsions:
REMARK  status: ('A' for Active; 'I' for Inactive)
REMARK    1  A    between atoms: C1_1  and  C2_2
REMARK    2  A    between atoms: C6_6  and  C7_7
REMARK    3  A    between atoms: C11_13  and  N2_14
REMARK    4  A    between atoms: C12_15  and  C13_17
REMARK    5  A    between atoms: C13_17  and  C14_18
REMARK                            x       y       z     vdW  Elec       q    Type
REMARK                         _______ _______ _______ _____ _____    ______ ____
ROOT
ATOM      1  C7  UNL     1      19.115   2.684  34.425  0.00  0.00    +0.265 C 
ATOM      2  O1  UNL     1      20.253   2.152  34.531  0.00  0.00    -0.268 OA
ATOM      3  N1  UNL     1      18.178   2.169  33.457  0.00  0.00    -0.296 N 
ATOM      4  C8  UNL     1      17.396   3.116  32.636  0.00  0.00    +0.108 C 
ATOM      5  C9  UNL     1      16.993   2.550  31.262  0.00  0.00    +0.021 C 
ATOM      6  C10 UNL     1      18.184   2.246  30.337  0.00  0.00    +0.024 C 
ATOM      7  C11 UNL     1      19.406   1.577  31.010  0.00  0.00    +0.074 C 
ATOM      8  C18 UNL     1      19.025   0.378  31.910  0.00  0.00    +0.041 C 
ATOM      9  C19 UNL     1      18.185   0.727  33.161  0.00  0.00    +0.110 C 
ENDROOT
BRANCH   1  15
ATOM     10  C1  UNL     1      19.972   7.375  35.620  0.00  0.00    +0.065 C 
ATOM     11  C2  UNL     1      19.218   6.109  35.872  0.00  0.00    +0.039 A 
ATOM     12  C3  UNL     1      18.265   6.043  36.895  0.00  0.00    +0.023 A 
ATOM     13  C4  UNL     1      17.583   4.847  37.118  0.00  0.00    +0.004 A 
ATOM     14  C5  UNL     1      17.846   3.736  36.318  0.00  0.00    +0.033 A 
ATOM     15  C6  UNL     1      18.790   3.838  35.284  0.00  0.00    +0.126 A 
ATOM     16  N3  UNL     1      19.457   5.012  35.102  0.00  0.00    -0.247 NA
ENDBRANCH   1  15
BRANCH   7  17
ATOM     17  N2  UNL     1      20.343   1.134  29.971  0.00  0.00    -0.312 N 
ATOM     18  C12 UNL     1      21.762   1.355  30.068  0.00  0.00    +0.219 C 
ATOM     19  O2  UNL     1      22.238   1.889  31.109  0.00  0.00    -0.275 OA
ATOM     20  H14 UNL     1      19.964   0.649  29.126  0.00  0.00    +0.149 HD
BRANCH  18  21
ATOM     21  C13 UNL     1      22.695   0.947  28.938  0.00  0.00    +0.044 C 
ATOM     22  C14 UNL     1      22.528   1.804  27.666  0.00  0.00    +0.021 C 
ATOM     23  C15 UNL     1      22.668  -0.557  28.638  0.00  0.00    +0.016 C 
ATOM     24  C16 UNL     1      24.125  -0.670  29.075  0.00  0.00    +0.002 C 
ATOM     25  C17 UNL     1      24.162   0.825  29.374  0.00  0.00    +0.016 C 
ENDBRANCH  18  21
ENDBRANCH   7  17
TORSDOF 3
ENDMDL
MODEL 3
REMARK VINA RESULT:    -5.977      6.586      9.136
REMARK INTER + INTRA:          -7.681
REMARK INTER:                  -7.035
REMARK INTRA:                  -0.646
REMARK UNBOUND:                -0.655
REMARK  Name = /home/qwerty/github/datacon2025hack/step_04_hit_selection/docking/ligands/lig_49.pdb
REMARK  5 active torsions:
REMARK  status: ('A' for Active; 'I' for Inactive)
REMARK    1  A    between atoms: C1_1  and  C2_2
REMARK    2  A    between atoms: C6_6  and  C7_7
REMARK    3  A    between atoms: C11_13  and  N2_14
REMARK    4  A    between atoms: C12_15  and  C13_17
REMARK    5  A    between atoms: C13_17  and  C14_18
REMARK                            x       y       z     vdW  Elec       q    Type
REMARK                         _______ _______ _______ _____ _____    ______ ____
ROOT
ATOM      1  C7  UNL     1      10.600   2.247  21.981  0.00  0.00    +0.265 C 
ATOM      2  O1  UNL     1      10.450   1.004  21.829  0.00  0.00    -0.268 OA
ATOM      3  N1  UNL     1      11.899   2.835  21.772  0.00  0.00    -0.296 N 
ATOM      4  C8  UNL     1      12.394   3.850  22.725  0.00  0.00    +0.108 C 
ATOM      5  C9  UNL     1      13.929   3.895  22.833  0.00  0.00    +0.021 C 
ATOM      6  C10 UNL     1      14.555   2.606  23.397  0.00  0.00    +0.024 C 
ATOM      7  C11 UNL     1      13.953   1.281  22.873  0.00  0.00    +0.074 C 
ATOM      8  C18 UNL     1      13.799   1.248  21.334  0.00  0.00    +0.041 C 
ATOM      9  C19 UNL     1      12.783   2.256  20.747  0.00  0.00    +0.110 C 
ENDROOT
BRANCH   1  15
ATOM     10  C1  UNL     1       7.338   5.753  20.870  0.00  0.00    +0.065 C 
ATOM     11  C2  UNL     1       7.866   4.766  21.861  0.00  0.00    +0.039 A 
ATOM     12  C3  UNL     1       7.277   4.647  23.126  0.00  0.00    +0.023 A 
ATOM     13  C4  UNL     1       7.796   3.728  24.037  0.00  0.00    +0.004 A 
ATOM     14  C5  UNL     1       8.884   2.931  23.680  0.00  0.00    +0.033 A 
ATOM     15  C6  UNL     1       9.438   3.055  22.397  0.00  0.00    +0.126 A 
ATOM     16  N3  UNL     1       8.925   3.976  21.534  0.00  0.00    -0.247 NA
ENDBRANCH   1  15
BRANCH   7  17
ATOM     17  N2  UNL     1      14.803   0.166  23.307  0.00  0.00    -0.312 N 
ATOM     18  C12 UNL     1      14.430  -0.713  24.384  0.00  0.00    +0.219 C 
ATOM     19  O2  UNL     1      13.306  -0.570  24.942  0.00  0.00    -0.275 OA
ATOM     20  H14 UNL     1      15.715   0.010  22.821  0.00  0.00    +0.149 HD
BRANCH  18  21
ATOM     21  C13 UNL     1      15.369  -1.814  24.855  0.00  0.00    +0.044 C 
ATOM     22  C14 UNL     1      14.632  -3.057  25.396  0.00  0.00    +0.021 C 
ATOM     23  C15 UNL     1      16.459  -1.317  25.813  0.00  0.00    +0.016 C 
ATOM     24  C16 UNL     1      17.526  -1.676  24.783  0.00  0.00    +0.002 C 
ATOM     25  C17 UNL     1      16.449  -2.175  23.825  0.00  0.00    +0.016 C 
ENDBRANCH  18  21
ENDBRANCH   7  17
TORSDOF 3
ENDMDL
MODEL 4
REMARK VINA RESULT:    -5.860     10.714     13.751
REMARK INTER + INTRA:          -7.542
REMARK INTER:                  -7.417
REMARK INTRA:                  -0.126
REMARK UNBOUND:                -0.655
REMARK  Name = /home/qwerty/github/datacon2025hack/step_04_hit_selection/docking/ligands/lig_49.pdb
REMARK  5 active torsions:
REMARK  status: ('A' for Active; 'I' for Inactive)
REMARK    1  A    between atoms: C1_1  and  C2_2
REMARK    2  A    between atoms: C6_6  and  C7_7
REMARK    3  A    between atoms: C11_13  and  N2_14
REMARK    4  A    between atoms: C12_15  and  C13_17
REMARK    5  A    between atoms: C13_17  and  C14_18
REMARK                            x       y       z     vdW  Elec       q    Type
REMARK                         _______ _______ _______ _____ _____    ______ ____
ROOT
ATOM      1  C7  UNL     1      21.918  15.036  25.876  0.00  0.00    +0.265 C 
ATOM      2  O1  UNL     1      20.755  14.692  25.531  0.00  0.00    -0.268 OA
ATOM      3  N1  UNL     1      22.709  15.852  24.989  0.00  0.00    -0.296 N 
ATOM      4  C8  UNL     1      24.137  15.528  24.791  0.00  0.00    +0.108 C 
ATOM      5  C9  UNL     1      24.679  15.955  23.414  0.00  0.00    +0.021 C 
ATOM      6  C10 UNL     1      24.025  15.222  22.229  0.00  0.00    +0.024 C 
ATOM      7  C11 UNL     1      22.494  15.027  22.320  0.00  0.00    +0.074 C 
ATOM      8  C18 UNL     1      21.738  16.317  22.717  0.00  0.00    +0.041 C 
ATOM      9  C19 UNL     1      22.028  16.845  24.142  0.00  0.00    +0.110 C 
ENDROOT
BRANCH   1  15
ATOM     10  C1  UNL     1      21.479  14.947  30.772  0.00  0.00    +0.065 C 
ATOM     11  C2  UNL     1      22.233  14.536  29.548  0.00  0.00    +0.039 A 
ATOM     12  C3  UNL     1      23.390  13.755  29.658  0.00  0.00    +0.023 A 
ATOM     13  C4  UNL     1      24.083  13.395  28.502  0.00  0.00    +0.004 A 
ATOM     14  C5  UNL     1      23.616  13.804  27.253  0.00  0.00    +0.033 A 
ATOM     15  C6  UNL     1      22.440  14.566  27.173  0.00  0.00    +0.126 A 
ATOM     16  N3  UNL     1      21.794  14.921  28.318  0.00  0.00    -0.247 NA
ENDBRANCH   1  15
BRANCH   7  17
ATOM     17  N2  UNL     1      21.995  14.542  21.028  0.00  0.00    -0.312 N 
ATOM     18  C12 UNL     1      20.886  13.631  20.923  0.00  0.00    +0.219 C 
ATOM     19  O2  UNL     1      20.270  13.280  21.968  0.00  0.00    -0.275 OA
ATOM     20  H14 UNL     1      22.469  14.864  20.154  0.00  0.00    +0.149 HD
BRANCH  18  21
ATOM     21  C13 UNL     1      20.442  13.093  19.571  0.00  0.00    +0.044 C 
ATOM     22  C14 UNL     1      20.687  14.077  18.409  0.00  0.00    +0.021 C 
ATOM     23  C15 UNL     1      19.012  12.537  19.576  0.00  0.00    +0.016 C 
ATOM     24  C16 UNL     1      19.555  11.142  19.279  0.00  0.00    +0.002 C 
ATOM     25  C17 UNL     1      20.979  11.686  19.270  0.00  0.00    +0.016 C 
ENDBRANCH  18  21
ENDBRANCH   7  17
TORSDOF 3
ENDMDL
MODEL 5
REMARK VINA RESULT:    -5.840      9.423     12.753
REMARK INTER + INTRA:          -7.520
REMARK INTER:                  -6.920
REMARK INTRA:                  -0.600
REMARK UNBOUND:                -0.655
REMARK  Name = /home/qwerty/github/datacon2025hack/step_04_hit_selection/docking/ligands/lig_49.pdb
REMARK  5 active torsions:
REMARK  status: ('A' for Active; 'I' for Inactive)
REMARK    1  A    between atoms: C1_1  and  C2_2
REMARK    2  A    between atoms: C6_6  and  C7_7
REMARK    3  A    between atoms: C11_13  and  N2_14
REMARK    4  A    between atoms: C12_15  and  C13_17
REMARK    5  A    between atoms: C13_17  and  C14_18
REMARK                            x       y       z     vdW  Elec       q    Type
REMARK                         _______ _______ _______ _____ _____    ______ ____
ROOT
ATOM      1  C7  UNL     1      21.635  14.784  21.644  0.00  0.00    +0.265 C 
ATOM      2  O1  UNL     1      20.421  14.998  21.911  0.00  0.00    -0.268 OA
ATOM      3  N1  UNL     1      21.999  14.305  20.334  0.00  0.00    -0.296 N 
ATOM      4  C8  UNL     1      23.003  13.227  20.213  0.00  0.00    +0.108 C 
ATOM      5  C9  UNL     1      22.823  12.358  18.955  0.00  0.00    +0.021 C 
ATOM      6  C10 UNL     1      21.505  11.562  18.928  0.00  0.00    +0.024 C 
ATOM      7  C11 UNL     1      20.248  12.325  19.407  0.00  0.00    +0.074 C 
ATOM      8  C18 UNL     1      20.111  13.731  18.777  0.00  0.00    +0.041 C 
ATOM      9  C19 UNL     1      21.209  14.746  19.173  0.00  0.00    +0.110 C 
ENDROOT
BRANCH   1  15
ATOM     10  C1  UNL     1      23.132  13.911  26.245  0.00  0.00    +0.065 C 
ATOM     11  C2  UNL     1      23.358  14.595  24.935  0.00  0.00    +0.039 A 
ATOM     12  C3  UNL     1      24.474  15.421  24.749  0.00  0.00    +0.023 A 
ATOM     13  C4  UNL     1      24.657  16.057  23.522  0.00  0.00    +0.004 A 
ATOM     14  C5  UNL     1      23.738  15.860  22.491  0.00  0.00    +0.033 A 
ATOM     15  C6  UNL     1      22.642  15.008  22.698  0.00  0.00    +0.126 A 
ATOM     16  N3  UNL     1      22.476  14.415  23.914  0.00  0.00    -0.247 NA
ENDBRANCH   1  15
BRANCH   7  17
ATOM     17  N2  UNL     1      19.056  11.527  19.095  0.00  0.00    -0.312 N 
ATOM     18  C12 UNL     1      18.302  10.840  20.109  0.00  0.00    +0.219 C 
ATOM     19  O2  UNL     1      18.628  10.971  21.323  0.00  0.00    -0.275 OA
ATOM     20  H14 UNL     1      18.750  11.450  18.098  0.00  0.00    +0.149 HD
BRANCH  18  21
ATOM     21  C13 UNL     1      17.114   9.962  19.741  0.00  0.00    +0.044 C 
ATOM     22  C14 UNL     1      15.981  10.732  19.032  0.00  0.00    +0.021 C 
ATOM     23  C15 UNL     1      16.602   9.109  20.909  0.00  0.00    +0.016 C 
ATOM     24  C16 UNL     1      17.002   7.843  20.157  0.00  0.00    +0.002 C 
ATOM     25  C17 UNL     1      17.512   8.683  18.991  0.00  0.00    +0.016 C 
ENDBRANCH  18  21
ENDBRANCH   7  17
TORSDOF 3
ENDMDL
MODEL 6
REMARK VINA RESULT:    -5.744     10.272     12.841
REMARK INTER + INTRA:          -7.407
REMARK INTER:                  -6.748
REMARK INTRA:                  -0.659
REMARK UNBOUND:                -0.655
REMARK  Name = /home/qwerty/github/datacon2025hack/step_04_hit_selection/docking/ligands/lig_49.pdb
REMARK  5 active torsions:
REMARK  status: ('A' for Active; 'I' for Inactive)
REMARK    1  A    between atoms: C1_1  and  C2_2
REMARK    2  A    between atoms: C6_6  and  C7_7
REMARK    3  A    between atoms: C11_13  and  N2_14
REMARK    4  A    between atoms: C12_15  and  C13_17
REMARK    5  A    between atoms: C13_17  and  C14_18
REMARK                            x       y       z     vdW  Elec       q    Type
REMARK                         _______ _______ _______ _____ _____    ______ ____
ROOT
ATOM      1  C7  UNL     1      18.473  11.000  36.271  0.00  0.00    +0.265 C 
ATOM      2  O1  UNL     1      19.501  11.713  36.110  0.00  0.00    -0.268 OA
ATOM      3  N1  UNL     1      18.623   9.589  36.526  0.00  0.00    -0.296 N 
ATOM      4  C8  UNL     1      17.736   8.632  35.833  0.00  0.00    +0.108 C 
ATOM      5  C9  UNL     1      18.371   7.245  35.624  0.00  0.00    +0.021 C 
ATOM      6  C10 UNL     1      19.604   7.254  34.702  0.00  0.00    +0.024 C 
ATOM      7  C11 UNL     1      20.592   8.424  34.911  0.00  0.00    +0.074 C 
ATOM      8  C18 UNL     1      20.955   8.659  36.396  0.00  0.00    +0.041 C 
ATOM      9  C19 UNL     1      19.788   9.127  37.298  0.00  0.00    +0.110 C 
ENDROOT
BRANCH   1  15
ATOM     10  C1  UNL     1      15.083  13.149  33.433  0.00  0.00    +0.065 C 
ATOM     11  C2  UNL     1      15.510  12.690  34.790  0.00  0.00    +0.039 A 
ATOM     12  C3  UNL     1      14.676  12.885  35.899  0.00  0.00    +0.023 A 
ATOM     13  C4  UNL     1      15.102  12.459  37.157  0.00  0.00    +0.004 A 
ATOM     14  C5  UNL     1      16.343  11.838  37.299  0.00  0.00    +0.033 A 
ATOM     15  C6  UNL     1      17.147  11.635  36.167  0.00  0.00    +0.126 A 
ATOM     16  N3  UNL     1      16.715  12.080  34.953  0.00  0.00    -0.247 NA
ENDBRANCH   1  15
BRANCH   7  17
ATOM     17  N2  UNL     1      21.815   8.162  34.142  0.00  0.00    -0.312 N 
ATOM     18  C12 UNL     1      22.186   8.947  32.994  0.00  0.00    +0.219 C 
ATOM     19  O2  UNL     1      21.478   9.940  32.664  0.00  0.00    -0.275 OA
ATOM     20  H14 UNL     1      22.432   7.371  34.434  0.00  0.00    +0.149 HD
BRANCH  18  21
ATOM     21  C13 UNL     1      23.422   8.600  32.177  0.00  0.00    +0.044 C 
ATOM     22  C14 UNL     1      23.174   7.498  31.127  0.00  0.00    +0.021 C 
ATOM     23  C15 UNL     1      24.662   8.320  33.038  0.00  0.00    +0.016 C 
ATOM     24  C16 UNL     1      25.350   9.545  32.442  0.00  0.00    +0.002 C 
ATOM     25  C17 UNL     1      24.123   9.829  31.582  0.00  0.00    +0.016 C 
ENDBRANCH  18  21
ENDBRANCH   7  17
TORSDOF 3
ENDMDL
MODEL 7
REMARK VINA RESULT:    -5.733      8.913     11.207
REMARK INTER + INTRA:          -7.394
REMARK INTER:                  -6.738
REMARK INTRA:                  -0.656
REMARK UNBOUND:                -0.655
REMARK  Name = /home/qwerty/github/datacon2025hack/step_04_hit_selection/docking/ligands/lig_49.pdb
REMARK  5 active torsions:
REMARK  status: ('A' for Active; 'I' for Inactive)
REMARK    1  A    between atoms: C1_1  and  C2_2
REMARK    2  A    between atoms: C6_6  and  C7_7
REMARK    3  A    between atoms: C11_13  and  N2_14
REMARK    4  A    between atoms: C12_15  and  C13_17
REMARK    5  A    between atoms: C13_17  and  C14_18
REMARK                            x       y       z     vdW  Elec       q    Type
REMARK                         _______ _______ _______ _____ _____    ______ ____
ROOT
ATOM      1  C7  UNL     1      20.902  10.725  20.144  0.00  0.00    +0.265 C 
ATOM      2  O1  UNL     1      21.779  10.379  20.982  0.00  0.00    -0.268 OA
ATOM      3  N1  UNL     1      21.058  11.963  19.423  0.00  0.00    -0.296 N 
ATOM      4  C8  UNL     1      19.889  12.848  19.244  0.00  0.00    +0.108 C 
ATOM      5  C9  UNL     1      20.258  14.336  19.109  0.00  0.00    +0.021 C 
ATOM      6  C10 UNL     1      20.913  14.935  20.367  0.00  0.00    +0.024 C 
ATOM      7  C11 UNL     1      21.960  14.040  21.072  0.00  0.00    +0.074 C 
ATOM      8  C18 UNL     1      22.990  13.424  20.096  0.00  0.00    +0.041 C 
ATOM      9  C19 UNL     1      22.416  12.414  19.075  0.00  0.00    +0.110 C 
ENDROOT
BRANCH   1  15
ATOM     10  C1  UNL     1      16.732   8.870  21.973  0.00  0.00    +0.065 C 
ATOM     11  C2  UNL     1      17.711   8.946  20.846  0.00  0.00    +0.039 A 
ATOM     12  C3  UNL     1      17.507   8.201  19.678  0.00  0.00    +0.023 A 
ATOM     13  C4  UNL     1      18.442   8.279  18.646  0.00  0.00    +0.004 A 
ATOM     14  C5  UNL     1      19.560   9.102  18.779  0.00  0.00    +0.033 A 
ATOM     15  C6  UNL     1      19.726   9.855  19.951  0.00  0.00    +0.126 A 
ATOM     16  N3  UNL     1      18.809   9.744  20.953  0.00  0.00    -0.247 NA
ENDBRANCH   1  15
BRANCH   7  17
ATOM     17  N2  UNL     1      22.660  14.833  22.090  0.00  0.00    -0.312 N 
ATOM     18  C12 UNL     1      22.787  14.394  23.454  0.00  0.00    +0.219 C 
ATOM     19  O2  UNL     1      22.343  13.259  23.786  0.00  0.00    -0.275 OA
ATOM     20  H14 UNL     1      23.072  15.753  21.815  0.00  0.00    +0.149 HD
BRANCH  18  21
ATOM     21  C13 UNL     1      23.456  15.275  24.500  0.00  0.00    +0.044 C 
ATOM     22  C14 UNL     1      24.745  15.954  23.994  0.00  0.00    +0.021 C 
ATOM     23  C15 UNL     1      23.654  14.574  25.850  0.00  0.00    +0.016 C 
ATOM     24  C16 UNL     1      22.693  15.564  26.503  0.00  0.00    +0.002 C 
ATOM     25  C17 UNL     1      22.493  16.267  25.165  0.00  0.00    +0.016 C 
ENDBRANCH  18  21
ENDBRANCH   7  17
TORSDOF 3
ENDMDL
MODEL 8
REMARK VINA RESULT:    -5.732     12.565     14.569
REMARK INTER + INTRA:          -7.392
REMARK INTER:                  -6.774
REMARK INTRA:                  -0.619
REMARK UNBOUND:                -0.655
REMARK  Name = /home/qwerty/github/datacon2025hack/step_04_hit_selection/docking/ligands/lig_49.pdb
REMARK  5 active torsions:
REMARK  status: ('A' for Active; 'I' for Inactive)
REMARK    1  A    between atoms: C1_1  and  C2_2
REMARK    2  A    between atoms: C6_6  and  C7_7
REMARK    3  A    between atoms: C11_13  and  N2_14
REMARK    4  A    between atoms: C12_15  and  C13_17
REMARK    5  A    between atoms: C13_17  and  C14_18
REMARK                            x       y       z     vdW  Elec       q    Type
REMARK                         _______ _______ _______ _____ _____    ______ ____
ROOT
ATOM      1  C7  UNL     1       7.443   6.577  27.472  0.00  0.00    +0.265 C 
ATOM      2  O1  UNL     1       6.652   7.503  27.143  0.00  0.00    -0.268 OA
ATOM      3  N1  UNL     1       8.044   6.590  28.783  0.00  0.00    -0.296 N 
ATOM      4  C8  UNL     1       9.478   6.265  28.923  0.00  0.00    +0.108 C 
ATOM      5  C9  UNL     1      10.145   6.939  30.136  0.00  0.00    +0.021 C 
ATOM      6  C10 UNL     1      10.179   8.476  30.057  0.00  0.00    +0.024 C 
ATOM      7  C11 UNL     1       8.891   9.152  29.533  0.00  0.00    +0.074 C 
ATOM      8  C18 UNL     1       7.605   8.615  30.205  0.00  0.00    +0.041 C 
ATOM      9  C19 UNL     1       7.271   7.134  29.911  0.00  0.00    +0.110 C 
ENDROOT
BRANCH   1  15
ATOM     10  C1  UNL     1       7.652   1.780  26.419  0.00  0.00    +0.065 C 
ATOM     11  C2  UNL     1       7.862   3.194  25.984  0.00  0.00    +0.039 A 
ATOM     12  C3  UNL     1       8.344   3.477  24.700  0.00  0.00    +0.023 A 
ATOM     13  C4  UNL     1       8.542   4.804  24.321  0.00  0.00    +0.004 A 
ATOM     14  C5  UNL     1       8.252   5.835  25.215  0.00  0.00    +0.033 A 
ATOM     15  C6  UNL     1       7.747   5.522  26.487  0.00  0.00    +0.126 A 
ATOM     16  N3  UNL     1       7.583   4.216  26.838  0.00  0.00    -0.247 NA
ENDBRANCH   1  15
BRANCH   7  17
ATOM     17  N2  UNL     1       8.989  10.600  29.747  0.00  0.00    -0.312 N 
ATOM     18  C12 UNL     1       8.587  11.555  28.748  0.00  0.00    +0.219 C 
ATOM     19  O2  UNL     1       8.068  11.147  27.671  0.00  0.00    -0.275 OA
ATOM     20  H14 UNL     1       9.374  10.950  30.654  0.00  0.00    +0.149 HD
BRANCH  18  21
ATOM     21  C13 UNL     1       8.771  13.049  28.975  0.00  0.00    +0.044 C 
ATOM     22  C14 UNL     1       7.543  13.727  29.615  0.00  0.00    +0.021 C 
ATOM     23  C15 UNL     1       9.272  13.797  27.732  0.00  0.00    +0.016 C 
ATOM     24  C16 UNL     1      10.569  14.136  28.460  0.00  0.00    +0.002 C 
ATOM     25  C17 UNL     1      10.078  13.397  29.701  0.00  0.00    +0.016 C 
ENDBRANCH  18  21
ENDBRANCH   7  17
TORSDOF 3
ENDMDL
MODEL 9
REMARK VINA RESULT:    -5.713      5.016      6.915
REMARK INTER + INTRA:          -7.371
REMARK INTER:                  -6.864
REMARK INTRA:                  -0.507
REMARK UNBOUND:                -0.655
REMARK  Name = /home/qwerty/github/datacon2025hack/step_04_hit_selection/docking/ligands/lig_49.pdb
REMARK  5 active torsions:
REMARK  status: ('A' for Active; 'I' for Inactive)
REMARK    1  A    between atoms: C1_1  and  C2_2
REMARK    2  A    between atoms: C6_6  and  C7_7
REMARK    3  A    between atoms: C11_13  and  N2_14
REMARK    4  A    between atoms: C12_15  and  C13_17
REMARK    5  A    between atoms: C13_17  and  C14_18
REMARK                            x       y       z     vdW  Elec       q    Type
REMARK                         _______ _______ _______ _____ _____    ______ ____
ROOT
ATOM      1  C7  UNL     1      20.039   8.836  20.323  0.00  0.00    +0.265 C 
ATOM      2  O1  UNL     1      19.051   8.088  20.559  0.00  0.00    -0.268 OA
ATOM      3  N1  UNL     1      21.331   8.247  20.077  0.00  0.00    -0.296 N 
ATOM      4  C8  UNL     1      22.528   8.844  20.704  0.00  0.00    +0.108 C 
ATOM      5  C9  UNL     1      23.661   7.832  20.955  0.00  0.00    +0.021 C 
ATOM      6  C10 UNL     1      23.300   6.726  21.962  0.00  0.00    +0.024 C 
ATOM      7  C11 UNL     1      21.879   6.129  21.827  0.00  0.00    +0.074 C 
ATOM      8  C18 UNL     1      21.511   5.757  20.371  0.00  0.00    +0.041 C 
ATOM      9  C19 UNL     1      21.398   6.947  19.390  0.00  0.00    +0.110 C 
ENDROOT
BRANCH   1  15
ATOM     10  C1  UNL     1      20.219  13.058  22.835  0.00  0.00    +0.065 C 
ATOM     11  C2  UNL     1      19.914  12.342  21.559  0.00  0.00    +0.039 A 
ATOM     12  C3  UNL     1      19.443  13.048  20.446  0.00  0.00    +0.023 A 
ATOM     13  C4  UNL     1      19.153  12.355  19.270  0.00  0.00    +0.004 A 
ATOM     14  C5  UNL     1      19.343  10.975  19.210  0.00  0.00    +0.033 A 
ATOM     15  C6  UNL     1      19.839  10.297  20.334  0.00  0.00    +0.126 A 
ATOM     16  N3  UNL     1      20.094  10.995  21.476  0.00  0.00    -0.247 NA
ENDBRANCH   1  15
BRANCH   7  17
ATOM     17  N2  UNL     1      21.776   4.940  22.680  0.00  0.00    -0.312 N 
ATOM     18  C12 UNL     1      21.337   5.010  24.049  0.00  0.00    +0.219 C 
ATOM     19  O2  UNL     1      20.963   6.118  24.526  0.00  0.00    -0.275 OA
ATOM     20  H14 UNL     1      22.039   4.010  22.281  0.00  0.00    +0.149 HD
BRANCH  18  21
ATOM     21  C13 UNL     1      21.312   3.766  24.926  0.00  0.00    +0.044 C 
ATOM     22  C14 UNL     1      20.593   2.570  24.271  0.00  0.00    +0.021 C 
ATOM     23  C15 UNL     1      20.817   4.038  26.353  0.00  0.00    +0.016 C 
ATOM     24  C16 UNL     1      22.191   3.662  26.900  0.00  0.00    +0.002 C 
ATOM     25  C17 UNL     1      22.691   3.388  25.486  0.00  0.00    +0.016 C 
ENDBRANCH  18  21
ENDBRANCH   7  17
TORSDOF 3
ENDMDL
