MODEL 1
REMARK VINA RESULT:    -5.946      0.000      0.000
REMARK INTER + INTRA:          -7.146
REMARK INTER:                  -6.641
REMARK INTRA:                  -0.504
REMARK UNBOUND:                -0.504
REMARK  Name = /home/qwerty/github/datacon2025hack/step_04_hit_selection/docking/ligands/lig_740.pdb
REMARK  3 active torsions:
REMARK  status: ('A' for Active; 'I' for Inactive)
REMARK    1  A    between atoms: C1_1  and  N1_2
REMARK    2  A    between atoms: N2_5  and  C4_6
REMARK    3  A    between atoms: C7_9  and  C8_10
REMARK                            x       y       z     vdW  Elec       q    Type
REMARK                         _______ _______ _______ _____ _____    ______ ____
ROOT
ATOM      1  C4  UNL     1      21.352   4.254  24.368  0.00  0.00    +0.121 A 
ATOM      2  C5  UNL     1      21.039   2.879  24.372  0.00  0.00    +0.044 A 
ATOM      3  C6  UNL     1      20.907   2.203  25.587  0.00  0.00    +0.013 A 
ATOM      4  C7  UNL     1      21.055   2.894  26.798  0.00  0.00    +0.003 A 
ATOM      5  C15 UNL     1      21.348   4.263  26.761  0.00  0.00    +0.121 A 
ATOM      6  N5  UNL     1      21.492   4.897  25.565  0.00  0.00    -0.240 NA
ENDROOT
BRANCH   4   7
ATOM      7  C8  UNL     1      20.920   2.189  28.089  0.00  0.00    +0.021 A 
ATOM      8  C9  UNL     1      19.643   2.042  28.672  0.00  0.00    +0.039 A 
ATOM      9  C10 UNL     1      19.554   1.350  29.878  0.00  0.00    +0.067 A 
ATOM     10  N3  UNL     1      18.463   1.066  30.595  0.00  0.00    -0.344 N 
ATOM     11  C11 UNL     1      18.940   0.377  31.662  0.00  0.00    +0.197 A 
ATOM     12  N4  UNL     1      20.289   0.216  31.645  0.00  0.00    -0.236 NA
ATOM     13  C12 UNL     1      20.647   0.837  30.506  0.00  0.00    +0.092 A 
ATOM     14  C13 UNL     1      21.926   0.968  29.975  0.00  0.00    +0.068 A 
ATOM     15  C14 UNL     1      22.061   1.647  28.747  0.00  0.00    +0.133 A 
ATOM     16  F1  UNL     1      23.299   1.795  28.211  0.00  0.00    -0.205 F 
ATOM     17  H11 UNL     1      17.472   1.308  30.380  0.00  0.00    +0.167 HD
ENDBRANCH   4   7
BRANCH   1  22
ATOM     18  C1  UNL     1      22.516   6.847  19.443  0.00  0.00    +0.105 C 
ATOM     19  N1  UNL     1      21.915   6.471  20.734  0.00  0.00    -0.302 NA
ATOM     20  C2  UNL     1      21.384   5.100  20.659  0.00  0.00    +0.103 C 
ATOM     21  C3  UNL     1      20.672   4.728  21.963  0.00  0.00    +0.122 C 
ATOM     22  N2  UNL     1      21.519   4.999  23.134  0.00  0.00    -0.313 N 
ATOM     23  C16 UNL     1      22.280   6.265  23.165  0.00  0.00    +0.122 C 
ATOM     24  C17 UNL     1      22.923   6.549  21.804  0.00  0.00    +0.103 C 
ENDBRANCH   1  22
TORSDOF 2
ENDMDL
MODEL 2
REMARK VINA RESULT:    -5.921      9.775     12.118
REMARK INTER + INTRA:          -7.117
REMARK INTER:                  -6.628
REMARK INTRA:                  -0.489
REMARK UNBOUND:                -0.504
REMARK  Name = /home/qwerty/github/datacon2025hack/step_04_hit_selection/docking/ligands/lig_740.pdb
REMARK  3 active torsions:
REMARK  status: ('A' for Active; 'I' for Inactive)
REMARK    1  A    between atoms: C1_1  and  N1_2
REMARK    2  A    between atoms: N2_5  and  C4_6
REMARK    3  A    between atoms: C7_9  and  C8_10
REMARK                            x       y       z     vdW  Elec       q    Type
REMARK                         _______ _______ _______ _____ _____    ______ ____
ROOT
ATOM      1  C4  UNL     1      13.820   0.593  22.747  0.00  0.00    +0.121 A 
ATOM      2  C5  UNL     1      13.778   1.014  21.400  0.00  0.00    +0.044 A 
ATOM      3  C6  UNL     1      12.877   2.009  21.016  0.00  0.00    +0.013 A 
ATOM      4  C7  UNL     1      12.041   2.612  21.967  0.00  0.00    +0.003 A 
ATOM      5  C15 UNL     1      12.120   2.184  23.298  0.00  0.00    +0.121 A 
ATOM      6  N5  UNL     1      12.990   1.198  23.647  0.00  0.00    -0.240 NA
ENDROOT
BRANCH   4   7
ATOM      7  C8  UNL     1      11.084   3.663  21.570  0.00  0.00    +0.021 A 
ATOM      8  C9  UNL     1       9.702   3.371  21.535  0.00  0.00    +0.039 A 
ATOM      9  C10 UNL     1       8.829   4.395  21.178  0.00  0.00    +0.067 A 
ATOM     10  N3  UNL     1       7.495   4.363  21.103  0.00  0.00    -0.344 N 
ATOM     11  C11 UNL     1       7.157   5.620  20.719  0.00  0.00    +0.197 A 
ATOM     12  N4  UNL     1       8.224   6.442  20.551  0.00  0.00    -0.236 NA
ATOM     13  C12 UNL     1       9.264   5.643  20.850  0.00  0.00    +0.092 A 
ATOM     14  C13 UNL     1      10.616   5.973  20.858  0.00  0.00    +0.068 A 
ATOM     15  C14 UNL     1      11.535   4.971  21.230  0.00  0.00    +0.133 A 
ATOM     16  F1  UNL     1      12.860   5.265  21.239  0.00  0.00    -0.205 F 
ATOM     17  H11 UNL     1       6.861   3.561  21.303  0.00  0.00    +0.167 HD
ENDBRANCH   4   7
BRANCH   1  22
ATOM     18  C1  UNL     1      17.747  -3.052  24.649  0.00  0.00    +0.105 C 
ATOM     19  N1  UNL     1      16.541  -2.466  24.039  0.00  0.00    -0.302 NA
ATOM     20  C2  UNL     1      15.786  -1.708  25.050  0.00  0.00    +0.103 C 
ATOM     21  C3  UNL     1      14.481  -1.171  24.456  0.00  0.00    +0.122 C 
ATOM     22  N2  UNL     1      14.722  -0.451  23.196  0.00  0.00    -0.313 N 
ATOM     23  C16 UNL     1      15.667  -1.040  22.225  0.00  0.00    +0.122 C 
ATOM     24  C17 UNL     1      16.918  -1.568  22.934  0.00  0.00    +0.103 C 
ENDBRANCH   1  22
TORSDOF 2
ENDMDL
MODEL 3
REMARK VINA RESULT:    -5.886     10.819     13.031
REMARK INTER + INTRA:          -7.079
REMARK INTER:                  -6.597
REMARK INTRA:                  -0.481
REMARK UNBOUND:                -0.504
REMARK  Name = /home/qwerty/github/datacon2025hack/step_04_hit_selection/docking/ligands/lig_740.pdb
REMARK  3 active torsions:
REMARK  status: ('A' for Active; 'I' for Inactive)
REMARK    1  A    between atoms: C1_1  and  N1_2
REMARK    2  A    between atoms: N2_5  and  C4_6
REMARK    3  A    between atoms: C7_9  and  C8_10
REMARK                            x       y       z     vdW  Elec       q    Type
REMARK                         _______ _______ _______ _____ _____    ______ ____
ROOT
ATOM      1  C4  UNL     1      18.402  10.977  35.951  0.00  0.00    +0.121 A 
ATOM      2  C5  UNL     1      19.701  11.525  35.912  0.00  0.00    +0.044 A 
ATOM      3  C6  UNL     1      20.797  10.690  35.684  0.00  0.00    +0.013 A 
ATOM      4  C7  UNL     1      20.605   9.318  35.463  0.00  0.00    +0.003 A 
ATOM      5  C15 UNL     1      19.301   8.808  35.491  0.00  0.00    +0.121 A 
ATOM      6  N5  UNL     1      18.250   9.637  35.735  0.00  0.00    -0.240 NA
ENDROOT
BRANCH   4   7
ATOM      7  C8  UNL     1      21.757   8.425  35.224  0.00  0.00    +0.021 A 
ATOM      8  C9  UNL     1      22.336   8.366  33.937  0.00  0.00    +0.039 A 
ATOM      9  C10 UNL     1      23.435   7.530  33.756  0.00  0.00    +0.067 A 
ATOM     10  N3  UNL     1      24.156   7.332  32.648  0.00  0.00    -0.344 N 
ATOM     11  C11 UNL     1      25.101   6.434  33.027  0.00  0.00    +0.197 A 
ATOM     12  N4  UNL     1      25.004   6.060  34.329  0.00  0.00    -0.236 NA
ATOM     13  C12 UNL     1      23.946   6.770  34.763  0.00  0.00    +0.092 A 
ATOM     14  C13 UNL     1      23.401   6.788  36.043  0.00  0.00    +0.068 A 
ATOM     15  C14 UNL     1      22.297   7.632  36.276  0.00  0.00    +0.133 A 
ATOM     16  F1  UNL     1      21.742   7.662  37.514  0.00  0.00    -0.205 F 
ATOM     17  H11 UNL     1      24.029   7.773  31.713  0.00  0.00    +0.167 HD
ENDBRANCH   4   7
BRANCH   1  22
ATOM     18  C1  UNL     1      13.556  13.907  36.466  0.00  0.00    +0.105 C 
ATOM     19  N1  UNL     1      14.936  13.418  36.630  0.00  0.00    -0.302 NA
ATOM     20  C2  UNL     1      14.921  12.017  37.081  0.00  0.00    +0.103 C 
ATOM     21  C3  UNL     1      16.347  11.524  37.347  0.00  0.00    +0.122 C 
ATOM     22  N2  UNL     1      17.231  11.797  36.204  0.00  0.00    -0.313 N 
ATOM     23  C16 UNL     1      17.129  13.113  35.541  0.00  0.00    +0.122 C 
ATOM     24  C17 UNL     1      15.663  13.516  35.353  0.00  0.00    +0.103 C 
ENDBRANCH   1  22
TORSDOF 2
ENDMDL
MODEL 4
REMARK VINA RESULT:    -5.832     13.735     15.474
REMARK INTER + INTRA:          -7.019
REMARK INTER:                  -6.537
REMARK INTRA:                  -0.481
REMARK UNBOUND:                -0.504
REMARK  Name = /home/qwerty/github/datacon2025hack/step_04_hit_selection/docking/ligands/lig_740.pdb
REMARK  3 active torsions:
REMARK  status: ('A' for Active; 'I' for Inactive)
REMARK    1  A    between atoms: C1_1  and  N1_2
REMARK    2  A    between atoms: N2_5  and  C4_6
REMARK    3  A    between atoms: C7_9  and  C8_10
REMARK                            x       y       z     vdW  Elec       q    Type
REMARK                         _______ _______ _______ _____ _____    ______ ____
ROOT
ATOM      1  C4  UNL     1       9.617  11.249  27.151  0.00  0.00    +0.121 A 
ATOM      2  C5  UNL     1       8.288  10.841  26.911  0.00  0.00    +0.044 A 
ATOM      3  C6  UNL     1       7.996  10.069  25.785  0.00  0.00    +0.013 A 
ATOM      4  C7  UNL     1       9.022   9.673  24.914  0.00  0.00    +0.003 A 
ATOM      5  C15 UNL     1      10.333  10.079  25.191  0.00  0.00    +0.121 A 
ATOM      6  N5  UNL     1      10.592  10.849  26.282  0.00  0.00    -0.240 NA
ENDROOT
BRANCH   4   7
ATOM      7  C8  UNL     1       8.723   8.858  23.720  0.00  0.00    +0.021 A 
ATOM      8  C9  UNL     1       8.759   7.449  23.811  0.00  0.00    +0.039 A 
ATOM      9  C10 UNL     1       8.449   6.715  22.669  0.00  0.00    +0.067 A 
ATOM     10  N3  UNL     1       8.392   5.388  22.524  0.00  0.00    -0.344 N 
ATOM     11  C11 UNL     1       8.040   5.214  21.224  0.00  0.00    +0.197 A 
ATOM     12  N4  UNL     1       7.873   6.379  20.546  0.00  0.00    -0.236 NA
ATOM     13  C12 UNL     1       8.134   7.307  21.484  0.00  0.00    +0.092 A 
ATOM     14  C13 UNL     1       8.098   8.691  21.345  0.00  0.00    +0.068 A 
ATOM     15  C14 UNL     1       8.389   9.474  22.480  0.00  0.00    +0.133 A 
ATOM     16  F1  UNL     1       8.368  10.826  22.369  0.00  0.00    -0.205 F 
ATOM     17  H11 UNL     1       8.567   4.655  23.243  0.00  0.00    +0.167 HD
ENDBRANCH   4   7
BRANCH   1  22
ATOM     18  C1  UNL     1      11.555  14.188  31.617  0.00  0.00    +0.105 C 
ATOM     19  N1  UNL     1      10.693  13.617  30.567  0.00  0.00    -0.302 NA
ATOM     20  C2  UNL     1      11.192  14.011  29.240  0.00  0.00    +0.103 C 
ATOM     21  C3  UNL     1      10.253  13.505  28.141  0.00  0.00    +0.122 C 
ATOM     22  N2  UNL     1       9.973  12.069  28.295  0.00  0.00    -0.313 N 
ATOM     23  C16 UNL     1       9.698  11.554  29.652  0.00  0.00    +0.122 C 
ATOM     24  C17 UNL     1      10.677  12.148  30.669  0.00  0.00    +0.103 C 
ENDBRANCH   1  22
TORSDOF 2
ENDMDL
MODEL 5
REMARK VINA RESULT:    -5.830      2.015      8.752
REMARK INTER + INTRA:          -7.016
REMARK INTER:                  -6.548
REMARK INTRA:                  -0.468
REMARK UNBOUND:                -0.504
REMARK  Name = /home/qwerty/github/datacon2025hack/step_04_hit_selection/docking/ligands/lig_740.pdb
REMARK  3 active torsions:
REMARK  status: ('A' for Active; 'I' for Inactive)
REMARK    1  A    between atoms: C1_1  and  N1_2
REMARK    2  A    between atoms: N2_5  and  C4_6
REMARK    3  A    between atoms: C7_9  and  C8_10
REMARK                            x       y       z     vdW  Elec       q    Type
REMARK                         _______ _______ _______ _____ _____    ______ ____
ROOT
ATOM      1  C4  UNL     1      21.384   2.987  27.626  0.00  0.00    +0.121 A 
ATOM      2  C5  UNL     1      22.476   2.704  26.779  0.00  0.00    +0.044 A 
ATOM      3  C6  UNL     1      22.532   3.279  25.508  0.00  0.00    +0.013 A 
ATOM      4  C7  UNL     1      21.526   4.160  25.086  0.00  0.00    +0.003 A 
ATOM      5  C15 UNL     1      20.464   4.435  25.957  0.00  0.00    +0.121 A 
ATOM      6  N5  UNL     1      20.419   3.847  27.183  0.00  0.00    -0.240 NA
ENDROOT
BRANCH   4   7
ATOM      7  C8  UNL     1      21.575   4.772  23.743  0.00  0.00    +0.021 A 
ATOM      8  C9  UNL     1      22.480   5.826  23.491  0.00  0.00    +0.039 A 
ATOM      9  C10 UNL     1      22.513   6.362  22.206  0.00  0.00    +0.067 A 
ATOM     10  N3  UNL     1      23.296   7.335  21.731  0.00  0.00    -0.344 N 
ATOM     11  C11 UNL     1      22.921   7.454  20.432  0.00  0.00    +0.197 A 
ATOM     12  N4  UNL     1      21.933   6.594  20.070  0.00  0.00    -0.236 NA
ATOM     13  C12 UNL     1      21.700   5.916  21.209  0.00  0.00    +0.092 A 
ATOM     14  C13 UNL     1      20.785   4.889  21.415  0.00  0.00    +0.068 A 
ATOM     15  C14 UNL     1      20.729   4.305  22.697  0.00  0.00    +0.133 A 
ATOM     16  F1  UNL     1      19.840   3.306  22.926  0.00  0.00    -0.205 F 
ATOM     17  H11 UNL     1      24.031   7.871  22.237  0.00  0.00    +0.167 HD
ENDBRANCH   4   7
BRANCH   1  22
ATOM     18  C1  UNL     1      20.316   0.714  32.727  0.00  0.00    +0.105 C 
ATOM     19  N1  UNL     1      20.986   1.302  31.554  0.00  0.00    -0.302 NA
ATOM     20  C2  UNL     1      20.799   0.431  30.382  0.00  0.00    +0.103 C 
ATOM     21  C3  UNL     1      21.569   0.980  29.177  0.00  0.00    +0.122 C 
ATOM     22  N2  UNL     1      21.266   2.401  28.948  0.00  0.00    -0.313 N 
ATOM     23  C16 UNL     1      21.198   3.298  30.120  0.00  0.00    +0.122 C 
ATOM     24  C17 UNL     1      20.432   2.636  31.269  0.00  0.00    +0.103 C 
ENDBRANCH   1  22
TORSDOF 2
ENDMDL
MODEL 6
REMARK VINA RESULT:    -5.812     11.205     13.136
REMARK INTER + INTRA:          -6.995
REMARK INTER:                  -6.514
REMARK INTRA:                  -0.482
REMARK UNBOUND:                -0.504
REMARK  Name = /home/qwerty/github/datacon2025hack/step_04_hit_selection/docking/ligands/lig_740.pdb
REMARK  3 active torsions:
REMARK  status: ('A' for Active; 'I' for Inactive)
REMARK    1  A    between atoms: C1_1  and  N1_2
REMARK    2  A    between atoms: N2_5  and  C4_6
REMARK    3  A    between atoms: C7_9  and  C8_10
REMARK                            x       y       z     vdW  Elec       q    Type
REMARK                         _______ _______ _______ _____ _____    ______ ____
ROOT
ATOM      1  C4  UNL     1      21.177   9.065  35.023  0.00  0.00    +0.121 A 
ATOM      2  C5  UNL     1      20.775   9.104  36.375  0.00  0.00    +0.044 A 
ATOM      3  C6  UNL     1      19.616   9.796  36.731  0.00  0.00    +0.013 A 
ATOM      4  C7  UNL     1      18.837  10.423  35.747  0.00  0.00    +0.003 A 
ATOM      5  C15 UNL     1      19.254  10.351  34.412  0.00  0.00    +0.121 A 
ATOM      6  N5  UNL     1      20.398   9.688  34.090  0.00  0.00    -0.240 NA
ENDROOT
BRANCH   4   7
ATOM      7  C8  UNL     1      17.611  11.160  36.114  0.00  0.00    +0.021 A 
ATOM      8  C9  UNL     1      17.597  12.570  36.037  0.00  0.00    +0.039 A 
ATOM      9  C10 UNL     1      16.415  13.228  36.369  0.00  0.00    +0.067 A 
ATOM     10  N3  UNL     1      16.159  14.539  36.347  0.00  0.00    -0.344 N 
ATOM     11  C11 UNL     1      14.867  14.629  36.752  0.00  0.00    +0.197 A 
ATOM     12  N4  UNL     1      14.299  13.426  37.027  0.00  0.00    -0.236 NA
ATOM     13  C12 UNL     1      15.299  12.562  36.774  0.00  0.00    +0.092 A 
ATOM     14  C13 UNL     1      15.271  11.175  36.875  0.00  0.00    +0.068 A 
ATOM     15  C14 UNL     1      16.440  10.466  36.533  0.00  0.00    +0.133 A 
ATOM     16  F1  UNL     1      16.441   9.113  36.631  0.00  0.00    -0.205 F 
ATOM     17  H11 UNL     1      16.799  15.313  36.072  0.00  0.00    +0.167 HD
ENDBRANCH   4   7
BRANCH   1  22
ATOM     18  C1  UNL     1      25.538   5.920  33.173  0.00  0.00    +0.105 C 
ATOM     19  N1  UNL     1      24.722   6.970  33.807  0.00  0.00    -0.302 NA
ATOM     20  C2  UNL     1      23.917   7.661  32.787  0.00  0.00    +0.103 C 
ATOM     21  C3  UNL     1      23.133   8.818  33.415  0.00  0.00    +0.122 C 
ATOM     22  N2  UNL     1      22.383   8.376  34.601  0.00  0.00    -0.313 N 
ATOM     23  C16 UNL     1      23.057   7.473  35.557  0.00  0.00    +0.122 C 
ATOM     24  C17 UNL     1      23.830   6.377  34.818  0.00  0.00    +0.103 C 
ENDBRANCH   1  22
TORSDOF 2
ENDMDL
MODEL 7
REMARK VINA RESULT:    -5.800     14.526     15.438
REMARK INTER + INTRA:          -6.982
REMARK INTER:                  -6.500
REMARK INTRA:                  -0.482
REMARK UNBOUND:                -0.504
REMARK  Name = /home/qwerty/github/datacon2025hack/step_04_hit_selection/docking/ligands/lig_740.pdb
REMARK  3 active torsions:
REMARK  status: ('A' for Active; 'I' for Inactive)
REMARK    1  A    between atoms: C1_1  and  N1_2
REMARK    2  A    between atoms: N2_5  and  C4_6
REMARK    3  A    between atoms: C7_9  and  C8_10
REMARK                            x       y       z     vdW  Elec       q    Type
REMARK                         _______ _______ _______ _____ _____    ______ ____
ROOT
ATOM      1  C4  UNL     1      10.146  11.916  30.059  0.00  0.00    +0.121 A 
ATOM      2  C5  UNL     1      10.360  13.298  30.251  0.00  0.00    +0.044 A 
ATOM      3  C6  UNL     1      11.044  13.741  31.384  0.00  0.00    +0.013 A 
ATOM      4  C7  UNL     1      11.546  12.817  32.312  0.00  0.00    +0.003 A 
ATOM      5  C15 UNL     1      11.334  11.452  32.084  0.00  0.00    +0.121 A 
ATOM      6  N5  UNL     1      10.646  11.043  30.984  0.00  0.00    -0.240 NA
ENDROOT
BRANCH   4   7
ATOM      7  C8  UNL     1      12.270  13.275  33.515  0.00  0.00    +0.021 A 
ATOM      8  C9  UNL     1      13.682  13.297  33.512  0.00  0.00    +0.039 A 
ATOM      9  C10 UNL     1      14.328  13.757  34.657  0.00  0.00    +0.067 A 
ATOM     10  N3  UNL     1      15.639  13.892  34.875  0.00  0.00    -0.344 N 
ATOM     11  C11 UNL     1      15.715  14.383  36.138  0.00  0.00    +0.197 A 
ATOM     12  N4  UNL     1      14.502  14.564  36.723  0.00  0.00    -0.236 NA
ATOM     13  C12 UNL     1      13.648  14.163  35.764  0.00  0.00    +0.092 A 
ATOM     14  C13 UNL     1      12.258  14.148  35.816  0.00  0.00    +0.068 A 
ATOM     15  C14 UNL     1      11.562  13.705  34.674  0.00  0.00    +0.133 A 
ATOM     16  F1  UNL     1      10.205  13.673  34.701  0.00  0.00    -0.205 F 
ATOM     17  H11 UNL     1      16.423  13.680  34.222  0.00  0.00    +0.167 HD
ENDBRANCH   4   7
BRANCH   1  22
ATOM     18  C1  UNL     1       7.659   9.404  25.606  0.00  0.00    +0.105 C 
ATOM     19  N1  UNL     1       8.071  10.381  26.629  0.00  0.00    -0.302 NA
ATOM     20  C2  UNL     1       7.697   9.893  27.966  0.00  0.00    +0.103 C 
ATOM     21  C3  UNL     1       8.034  10.940  29.033  0.00  0.00    +0.122 C 
ATOM     22  N2  UNL     1       9.424  11.403  28.910  0.00  0.00    -0.313 N 
ATOM     23  C16 UNL     1       9.949  11.684  27.558  0.00  0.00    +0.122 C 
ATOM     24  C17 UNL     1       9.528  10.590  26.572  0.00  0.00    +0.103 C 
ENDBRANCH   1  22
TORSDOF 2
ENDMDL
MODEL 8
REMARK VINA RESULT:    -5.774      9.472     11.156
REMARK INTER + INTRA:          -6.953
REMARK INTER:                  -6.465
REMARK INTRA:                  -0.489
REMARK UNBOUND:                -0.504
REMARK  Name = /home/qwerty/github/datacon2025hack/step_04_hit_selection/docking/ligands/lig_740.pdb
REMARK  3 active torsions:
REMARK  status: ('A' for Active; 'I' for Inactive)
REMARK    1  A    between atoms: C1_1  and  N1_2
REMARK    2  A    between atoms: N2_5  and  C4_6
REMARK    3  A    between atoms: C7_9  and  C8_10
REMARK                            x       y       z     vdW  Elec       q    Type
REMARK                         _______ _______ _______ _____ _____    ______ ____
ROOT
ATOM      1  C4  UNL     1      11.587   6.182  20.838  0.00  0.00    +0.121 A 
ATOM      2  C5  UNL     1      11.219   5.005  20.152  0.00  0.00    +0.044 A 
ATOM      3  C6  UNL     1      12.069   3.898  20.175  0.00  0.00    +0.013 A 
ATOM      4  C7  UNL     1      13.268   3.943  20.903  0.00  0.00    +0.003 A 
ATOM      5  C15 UNL     1      13.595   5.119  21.588  0.00  0.00    +0.121 A 
ATOM      6  N5  UNL     1      12.762   6.194  21.534  0.00  0.00    -0.240 NA
ENDROOT
BRANCH   4   7
ATOM      7  C8  UNL     1      14.175   2.778  20.932  0.00  0.00    +0.021 A 
ATOM      8  C9  UNL     1      13.900   1.703  21.806  0.00  0.00    +0.039 A 
ATOM      9  C10 UNL     1      14.766   0.612  21.788  0.00  0.00    +0.067 A 
ATOM     10  N3  UNL     1      14.694  -0.518  22.497  0.00  0.00    -0.344 N 
ATOM     11  C11 UNL     1      15.774  -1.231  22.089  0.00  0.00    +0.197 A 
ATOM     12  N4  UNL     1      16.522  -0.596  21.150  0.00  0.00    -0.236 NA
ATOM     13  C12 UNL     1      15.859   0.563  20.979  0.00  0.00    +0.092 A 
ATOM     14  C13 UNL     1      16.176   1.603  20.111  0.00  0.00    +0.068 A 
ATOM     15  C14 UNL     1      15.317   2.721  20.083  0.00  0.00    +0.133 A 
ATOM     16  F1  UNL     1      15.608   3.753  19.252  0.00  0.00    -0.205 F 
ATOM     17  H11 UNL     1      13.971  -0.793  23.195  0.00  0.00    +0.167 HD
ENDBRANCH   4   7
BRANCH   1  22
ATOM     18  C1  UNL     1       8.285  10.776  21.413  0.00  0.00    +0.105 C 
ATOM     19  N1  UNL     1       9.065   9.657  20.856  0.00  0.00    -0.302 NA
ATOM     20  C2  UNL     1      10.482   9.802  21.225  0.00  0.00    +0.103 C 
ATOM     21  C3  UNL     1      11.322   8.699  20.575  0.00  0.00    +0.122 C 
ATOM     22  N2  UNL     1      10.750   7.368  20.829  0.00  0.00    -0.313 N 
ATOM     23  C16 UNL     1       9.286   7.204  20.712  0.00  0.00    +0.122 C 
ATOM     24  C17 UNL     1       8.552   8.376  21.370  0.00  0.00    +0.103 C 
ENDBRANCH   1  22
TORSDOF 2
ENDMDL
MODEL 9
REMARK VINA RESULT:    -5.668      5.279      6.780
REMARK INTER + INTRA:          -6.834
REMARK INTER:                  -6.325
REMARK INTRA:                  -0.509
REMARK UNBOUND:                -0.504
REMARK  Name = /home/qwerty/github/datacon2025hack/step_04_hit_selection/docking/ligands/lig_740.pdb
REMARK  3 active torsions:
REMARK  status: ('A' for Active; 'I' for Inactive)
REMARK    1  A    between atoms: C1_1  and  N1_2
REMARK    2  A    between atoms: N2_5  and  C4_6
REMARK    3  A    between atoms: C7_9  and  C8_10
REMARK                            x       y       z     vdW  Elec       q    Type
REMARK                         _______ _______ _______ _____ _____    ______ ____
ROOT
ATOM      1  C4  UNL     1      21.467   3.709  29.343  0.00  0.00    +0.121 A 
ATOM      2  C5  UNL     1      21.417   5.112  29.489  0.00  0.00    +0.044 A 
ATOM      3  C6  UNL     1      21.667   5.686  30.737  0.00  0.00    +0.013 A 
ATOM      4  C7  UNL     1      21.997   4.877  31.834  0.00  0.00    +0.003 A 
ATOM      5  C15 UNL     1      22.056   3.489  31.652  0.00  0.00    +0.121 A 
ATOM      6  N5  UNL     1      21.789   2.949  30.432  0.00  0.00    -0.240 NA
ENDROOT
BRANCH   4   7
ATOM      7  C8  UNL     1      22.261   5.474  33.158  0.00  0.00    +0.021 A 
ATOM      8  C9  UNL     1      21.178   5.776  34.013  0.00  0.00    +0.039 A 
ATOM      9  C10 UNL     1      21.469   6.317  35.264  0.00  0.00    +0.067 A 
ATOM     10  N3  UNL     1      20.622   6.654  36.241  0.00  0.00    -0.344 N 
ATOM     11  C11 UNL     1      21.428   7.119  37.229  0.00  0.00    +0.197 A 
ATOM     12  N4  UNL     1      22.749   7.087  36.913  0.00  0.00    -0.236 NA
ATOM     13  C12 UNL     1      22.743   6.574  35.669  0.00  0.00    +0.092 A 
ATOM     14  C13 UNL     1      23.838   6.304  34.855  0.00  0.00    +0.068 A 
ATOM     15  C14 UNL     1      23.593   5.740  33.587  0.00  0.00    +0.133 A 
ATOM     16  F1  UNL     1      24.644   5.474  32.771  0.00  0.00    -0.205 F 
ATOM     17  H11 UNL     1      19.584   6.570  36.247  0.00  0.00    +0.167 HD
ENDBRANCH   4   7
BRANCH   1  22
ATOM     18  C1  UNL     1      19.864   1.006  24.604  0.00  0.00    +0.105 C 
ATOM     19  N1  UNL     1      20.644   1.730  25.623  0.00  0.00    -0.302 NA
ATOM     20  C2  UNL     1      20.032   3.043  25.884  0.00  0.00    +0.103 C 
ATOM     21  C3  UNL     1      20.884   3.846  26.871  0.00  0.00    +0.122 C 
ATOM     22  N2  UNL     1      21.196   3.060  28.074  0.00  0.00    -0.313 N 
ATOM     23  C16 UNL     1      21.589   1.646  27.901  0.00  0.00    +0.122 C 
ATOM     24  C17 UNL     1      20.689   0.952  26.873  0.00  0.00    +0.103 C 
ENDBRANCH   1  22
TORSDOF 2
ENDMDL
