MODEL 1
REMARK VINA RESULT:    -7.068      0.000      0.000
REMARK INTER + INTRA:         -10.388
REMARK INTER:                  -9.548
REMARK INTRA:                  -0.840
REMARK UNBOUND:                -0.840
REMARK  Name = /home/qwerty/github/datacon2025hack/step_04_hit_selection/docking/ligands/lig_615.pdb
REMARK  9 active torsions:
REMARK  status: ('A' for Active; 'I' for Inactive)
REMARK    1  A    between atoms: C1_1  and  C2_2
REMARK    2  A    between atoms: C2_2  and  C3_3
REMARK    3  A    between atoms: C3_3  and  C4_4
REMARK    4  A    between atoms: C3_3  and  C5_5
REMARK    5  A    between atoms: C8_8  and  N1_9
REMARK    6  A    between atoms: C9_10  and  C10_12
REMARK    7  A    between atoms: C10_12  and  C11_13
REMARK    8  A    between atoms: C12_16  and  C13_17
REMARK    9  A    between atoms: C18_24  and  C19_25
REMARK                            x       y       z     vdW  Elec       q    Type
REMARK                         _______ _______ _______ _____ _____    ______ ____
ROOT
ATOM      1  C10 UNL     1      20.373   4.886  21.952  0.00  0.00    +0.175 C 
ENDROOT
BRANCH   1   2
ATOM      2  C11 UNL     1      21.036   6.162  21.533  0.00  0.00    +0.181 A 
ATOM      3  N2  UNL     1      22.372   6.337  21.519  0.00  0.00    -0.060 NA
ATOM      4  O2  UNL     1      22.541   7.579  21.181  0.00  0.00    -0.331 OA
ATOM      5  C12 UNL     1      21.374   8.146  20.998  0.00  0.00    +0.278 A 
ATOM      6  N5  UNL     1      20.361   7.285  21.213  0.00  0.00    -0.190 NA
BRANCH   5   7
ATOM      7  C13 UNL     1      21.195   9.553  20.630  0.00  0.00    +0.146 A 
ATOM      8  C14 UNL     1      22.066  10.586  20.917  0.00  0.00    +0.120 A 
ATOM      9  N3  UNL     1      21.547  11.704  20.389  0.00  0.00    -0.333 N 
ATOM     10  C15 UNL     1      20.411  11.328  19.773  0.00  0.00    +0.111 A 
ATOM     11  N4  UNL     1      20.144  10.013  19.916  0.00  0.00    -0.227 NA
ATOM     12  C16 UNL     1      19.505  12.297  19.076  0.00  0.00    +0.075 C 
ATOM     13  C17 UNL     1      20.241  13.618  18.780  0.00  0.00    +0.012 C 
ATOM     14  C18 UNL     1      21.103  14.101  19.971  0.00  0.00    +0.006 C 
ATOM     15  C19 UNL     1      20.239  14.475  21.184  0.00  0.00    +0.009 C 
ATOM     16  C20 UNL     1      22.155  13.033  20.342  0.00  0.00    +0.126 C 
ENDBRANCH   5   7
ENDBRANCH   1   2
BRANCH   1  18
ATOM     17  N1  UNL     1      21.319   3.282  23.690  0.00  0.00    -0.285 N 
ATOM     18  C9  UNL     1      20.713   4.548  23.377  0.00  0.00    +0.225 C 
ATOM     19  O1  UNL     1      20.459   5.381  24.291  0.00  0.00    -0.275 OA
ATOM     20  H12 UNL     1      21.690   2.710  22.897  0.00  0.00    +0.155 HD
BRANCH  17  24
ATOM     21  C5  UNL     1      21.902   1.838  27.658  0.00  0.00    -0.044 A 
ATOM     22  C6  UNL     1      20.850   1.356  26.860  0.00  0.00    +0.006 A 
ATOM     23  C7  UNL     1      20.670   1.832  25.558  0.00  0.00    +0.023 A 
ATOM     24  C8  UNL     1      21.539   2.796  25.026  0.00  0.00    +0.033 A 
ATOM     25  C21 UNL     1      22.568   3.308  25.837  0.00  0.00    +0.023 A 
ATOM     26  C22 UNL     1      22.752   2.829  27.136  0.00  0.00    +0.006 A 
BRANCH  21  27
ATOM     27  C3  UNL     1      22.109   1.343  29.081  0.00  0.00    +0.016 C 
ATOM     28  C4  UNL     1      20.807   0.740  29.625  0.00  0.00    +0.012 C 
BRANCH  27  30
ATOM     29  C1  UNL     1      22.833  -1.098  28.855  0.00  0.00    +0.004 C 
ATOM     30  C2  UNL     1      23.268   0.327  29.193  0.00  0.00    +0.004 C 
ENDBRANCH  27  30
ENDBRANCH  21  27
ENDBRANCH  17  24
ENDBRANCH   1  18
TORSDOF 6
ENDMDL
MODEL 2
REMARK VINA RESULT:    -6.832     10.163     15.858
REMARK INTER + INTRA:         -10.068
REMARK INTER:                  -9.173
REMARK INTRA:                  -0.895
REMARK UNBOUND:                -0.840
REMARK  Name = /home/qwerty/github/datacon2025hack/step_04_hit_selection/docking/ligands/lig_615.pdb
REMARK  9 active torsions:
REMARK  status: ('A' for Active; 'I' for Inactive)
REMARK    1  A    between atoms: C1_1  and  C2_2
REMARK    2  A    between atoms: C2_2  and  C3_3
REMARK    3  A    between atoms: C3_3  and  C4_4
REMARK    4  A    between atoms: C3_3  and  C5_5
REMARK    5  A    between atoms: C8_8  and  N1_9
REMARK    6  A    between atoms: C9_10  and  C10_12
REMARK    7  A    between atoms: C10_12  and  C11_13
REMARK    8  A    between atoms: C12_16  and  C13_17
REMARK    9  A    between atoms: C18_24  and  C19_25
REMARK                            x       y       z     vdW  Elec       q    Type
REMARK                         _______ _______ _______ _____ _____    ______ ____
ROOT
ATOM      1  C10 UNL     1      18.338   2.598  35.950  0.00  0.00    +0.175 C 
ENDROOT
BRANCH   1   2
ATOM      2  C11 UNL     1      17.038   1.882  36.150  0.00  0.00    +0.181 A 
ATOM      3  N2  UNL     1      16.856   0.578  35.867  0.00  0.00    -0.060 NA
ATOM      4  O2  UNL     1      15.597   0.361  36.095  0.00  0.00    -0.331 OA
ATOM      5  C12 UNL     1      15.026   1.470  36.494  0.00  0.00    +0.278 A 
ATOM      6  N5  UNL     1      15.903   2.492  36.548  0.00  0.00    -0.190 NA
BRANCH   5   7
ATOM      7  C13 UNL     1      13.602   1.589  36.818  0.00  0.00    +0.146 A 
ATOM      8  C14 UNL     1      12.671   0.570  36.778  0.00  0.00    +0.120 A 
ATOM      9  N3  UNL     1      11.496   1.087  37.165  0.00  0.00    -0.333 N 
ATOM     10  C15 UNL     1      11.741   2.378  37.462  0.00  0.00    +0.111 A 
ATOM     11  N4  UNL     1      13.024   2.735  37.241  0.00  0.00    -0.227 NA
ATOM     12  C16 UNL     1      10.670   3.326  37.910  0.00  0.00    +0.075 C 
ATOM     13  C17 UNL     1       9.429   2.557  38.400  0.00  0.00    +0.012 C 
ATOM     14  C18 UNL     1       9.059   1.370  37.480  0.00  0.00    +0.006 C 
ATOM     15  C19 UNL     1       8.618   1.846  36.087  0.00  0.00    +0.009 C 
ATOM     16  C20 UNL     1      10.237   0.376  37.383  0.00  0.00    +0.126 C 
ENDBRANCH   5   7
ENDBRANCH   1   2
BRANCH   1  18
ATOM     17  N1  UNL     1      19.971   1.634  34.250  0.00  0.00    -0.285 N 
ATOM     18  C9  UNL     1      18.822   2.449  34.534  0.00  0.00    +0.225 C 
ATOM     19  O1  UNL     1      18.213   3.046  33.603  0.00  0.00    -0.275 OA
ATOM     20  H12 UNL     1      20.324   1.006  35.008  0.00  0.00    +0.155 HD
BRANCH  17  24
ATOM     21  C5  UNL     1      21.855   1.452  30.429  0.00  0.00    -0.044 A 
ATOM     22  C6  UNL     1      22.162   2.478  31.340  0.00  0.00    +0.006 A 
ATOM     23  C7  UNL     1      21.544   2.526  32.593  0.00  0.00    +0.023 A 
ATOM     24  C8  UNL     1      20.607   1.549  32.962  0.00  0.00    +0.033 A 
ATOM     25  C21 UNL     1      20.268   0.545  32.037  0.00  0.00    +0.023 A 
ATOM     26  C22 UNL     1      20.891   0.493  30.787  0.00  0.00    +0.006 A 
BRANCH  21  27
ATOM     27  C3  UNL     1      22.508   1.388  29.057  0.00  0.00    +0.016 C 
ATOM     28  C4  UNL     1      23.956   0.897  29.184  0.00  0.00    +0.012 C 
BRANCH  27  30
ATOM     29  C1  UNL     1      20.952   1.329  27.031  0.00  0.00    +0.004 C 
ATOM     30  C2  UNL     1      21.717   0.505  28.065  0.00  0.00    +0.004 C 
ENDBRANCH  27  30
ENDBRANCH  21  27
ENDBRANCH  17  24
ENDBRANCH   1  18
TORSDOF 6
ENDMDL
MODEL 3
REMARK VINA RESULT:    -6.828     14.274     18.728
REMARK INTER + INTRA:         -10.063
REMARK INTER:                  -9.238
REMARK INTRA:                  -0.825
REMARK UNBOUND:                -0.840
REMARK  Name = /home/qwerty/github/datacon2025hack/step_04_hit_selection/docking/ligands/lig_615.pdb
REMARK  9 active torsions:
REMARK  status: ('A' for Active; 'I' for Inactive)
REMARK    1  A    between atoms: C1_1  and  C2_2
REMARK    2  A    between atoms: C2_2  and  C3_3
REMARK    3  A    between atoms: C3_3  and  C4_4
REMARK    4  A    between atoms: C3_3  and  C5_5
REMARK    5  A    between atoms: C8_8  and  N1_9
REMARK    6  A    between atoms: C9_10  and  C10_12
REMARK    7  A    between atoms: C10_12  and  C11_13
REMARK    8  A    between atoms: C12_16  and  C13_17
REMARK    9  A    between atoms: C18_24  and  C19_25
REMARK                            x       y       z     vdW  Elec       q    Type
REMARK                         _______ _______ _______ _____ _____    ______ ____
ROOT
ATOM      1  C10 UNL     1       6.641   5.642  27.833  0.00  0.00    +0.175 C 
ENDROOT
BRANCH   1   2
ATOM      2  C11 UNL     1       6.459   4.714  28.994  0.00  0.00    +0.181 A 
ATOM      3  N2  UNL     1       5.718   5.015  30.079  0.00  0.00    -0.060 NA
ATOM      4  O2  UNL     1       5.875   4.006  30.879  0.00  0.00    -0.331 OA
ATOM      5  C12 UNL     1       6.673   3.127  30.325  0.00  0.00    +0.278 A 
ATOM      6  N5  UNL     1       7.087   3.526  29.107  0.00  0.00    -0.190 NA
BRANCH   5   7
ATOM      7  C13 UNL     1       7.083   1.874  30.965  0.00  0.00    +0.146 A 
ATOM      8  C14 UNL     1       6.934   1.556  32.301  0.00  0.00    +0.120 A 
ATOM      9  N3  UNL     1       7.415   0.316  32.472  0.00  0.00    -0.333 N 
ATOM     10  C15 UNL     1       7.806  -0.100  31.252  0.00  0.00    +0.111 A 
ATOM     11  N4  UNL     1       7.639   0.839  30.297  0.00  0.00    -0.227 NA
ATOM     12  C16 UNL     1       8.435  -1.439  31.013  0.00  0.00    +0.075 C 
ATOM     13  C17 UNL     1       8.163  -2.390  32.194  0.00  0.00    +0.012 C 
ATOM     14  C18 UNL     1       8.336  -1.701  33.569  0.00  0.00    +0.006 C 
ATOM     15  C19 UNL     1       9.793  -1.283  33.816  0.00  0.00    +0.009 C 
ATOM     16  C20 UNL     1       7.381  -0.493  33.690  0.00  0.00    +0.126 C 
ENDBRANCH   5   7
ENDBRANCH   1   2
BRANCH   1  18
ATOM     17  N1  UNL     1       6.710   8.187  27.902  0.00  0.00    -0.285 N 
ATOM     18  C9  UNL     1       7.293   6.925  28.268  0.00  0.00    +0.225 C 
ATOM     19  O1  UNL     1       8.353   6.883  28.953  0.00  0.00    -0.275 OA
ATOM     20  H12 UNL     1       5.741   8.182  27.510  0.00  0.00    +0.155 HD
BRANCH  17  24
ATOM     21  C5  UNL     1       8.495  11.993  28.615  0.00  0.00    -0.044 A 
ATOM     22  C6  UNL     1       7.765  11.336  29.621  0.00  0.00    +0.006 A 
ATOM     23  C7  UNL     1       7.188  10.085  29.379  0.00  0.00    +0.023 A 
ATOM     24  C8  UNL     1       7.331   9.465  28.129  0.00  0.00    +0.033 A 
ATOM     25  C21 UNL     1       8.027  10.139  27.109  0.00  0.00    +0.023 A 
ATOM     26  C22 UNL     1       8.610  11.385  27.352  0.00  0.00    +0.006 A 
BRANCH  21  27
ATOM     27  C3  UNL     1       9.122  13.358  28.853  0.00  0.00    +0.016 C 
ATOM     28  C4  UNL     1       9.982  13.331  30.123  0.00  0.00    +0.012 C 
BRANCH  27  30
ATOM     29  C1  UNL     1      11.276  14.483  28.062  0.00  0.00    +0.004 C 
ATOM     30  C2  UNL     1       9.950  13.849  27.644  0.00  0.00    +0.004 C 
ENDBRANCH  27  30
ENDBRANCH  21  27
ENDBRANCH  17  24
ENDBRANCH   1  18
TORSDOF 6
ENDMDL
MODEL 4
REMARK VINA RESULT:    -6.720      5.841     11.327
REMARK INTER + INTRA:          -9.917
REMARK INTER:                  -8.728
REMARK INTRA:                  -1.190
REMARK UNBOUND:                -0.840
REMARK  Name = /home/qwerty/github/datacon2025hack/step_04_hit_selection/docking/ligands/lig_615.pdb
REMARK  9 active torsions:
REMARK  status: ('A' for Active; 'I' for Inactive)
REMARK    1  A    between atoms: C1_1  and  C2_2
REMARK    2  A    between atoms: C2_2  and  C3_3
REMARK    3  A    between atoms: C3_3  and  C4_4
REMARK    4  A    between atoms: C3_3  and  C5_5
REMARK    5  A    between atoms: C8_8  and  N1_9
REMARK    6  A    between atoms: C9_10  and  C10_12
REMARK    7  A    between atoms: C10_12  and  C11_13
REMARK    8  A    between atoms: C12_16  and  C13_17
REMARK    9  A    between atoms: C18_24  and  C19_25
REMARK                            x       y       z     vdW  Elec       q    Type
REMARK                         _______ _______ _______ _____ _____    ______ ____
ROOT
ATOM      1  C10 UNL     1      22.045   0.300  29.438  0.00  0.00    +0.175 C 
ENDROOT
BRANCH   1   2
ATOM      2  C11 UNL     1      21.649   1.053  30.671  0.00  0.00    +0.181 A 
ATOM      3  N2  UNL     1      20.621   0.695  31.464  0.00  0.00    -0.060 NA
ATOM      4  O2  UNL     1      20.553   1.629  32.362  0.00  0.00    -0.331 OA
ATOM      5  C12 UNL     1      21.484   2.522  32.138  0.00  0.00    +0.278 A 
ATOM      6  N5  UNL     1      22.226   2.209  31.057  0.00  0.00    -0.190 NA
BRANCH   5   7
ATOM      7  C13 UNL     1      21.679   3.726  32.950  0.00  0.00    +0.146 A 
ATOM      8  C14 UNL     1      22.824   4.497  32.999  0.00  0.00    +0.120 A 
ATOM      9  N3  UNL     1      22.585   5.513  33.841  0.00  0.00    -0.333 N 
ATOM     10  C15 UNL     1      21.310   5.363  34.249  0.00  0.00    +0.111 A 
ATOM     11  N4  UNL     1      20.721   4.260  33.740  0.00  0.00    -0.227 NA
ATOM     12  C16 UNL     1      20.657   6.286  35.231  0.00  0.00    +0.075 C 
ATOM     13  C17 UNL     1      21.438   7.608  35.342  0.00  0.00    +0.012 C 
ATOM     14  C18 UNL     1      22.970   7.395  35.400  0.00  0.00    +0.006 C 
ATOM     15  C19 UNL     1      23.394   6.658  36.679  0.00  0.00    +0.009 C 
ATOM     16  C20 UNL     1      23.457   6.649  34.138  0.00  0.00    +0.126 C 
ENDBRANCH   5   7
ENDBRANCH   1   2
BRANCH   1  18
ATOM     17  N1  UNL     1      22.326   2.428  28.068  0.00  0.00    -0.285 N 
ATOM     18  C9  UNL     1      21.770   1.110  28.202  0.00  0.00    +0.225 C 
ATOM     19  O1  UNL     1      21.047   0.623  27.288  0.00  0.00    -0.275 OA
ATOM     20  H12 UNL     1      23.070   2.715  28.745  0.00  0.00    +0.155 HD
BRANCH  17  24
ATOM     21  C5  UNL     1      21.431   5.149  24.910  0.00  0.00    -0.044 A 
ATOM     22  C6  UNL     1      22.525   4.271  24.820  0.00  0.00    +0.006 A 
ATOM     23  C7  UNL     1      22.807   3.378  25.859  0.00  0.00    +0.023 A 
ATOM     24  C8  UNL     1      22.001   3.343  27.006  0.00  0.00    +0.033 A 
ATOM     25  C21 UNL     1      20.930   4.249  27.116  0.00  0.00    +0.023 A 
ATOM     26  C22 UNL     1      20.644   5.137  26.075  0.00  0.00    +0.006 A 
BRANCH  21  27
ATOM     27  C3  UNL     1      21.112   6.136  23.798  0.00  0.00    +0.016 C 
ATOM     28  C4  UNL     1      22.323   6.292  22.867  0.00  0.00    +0.012 C 
BRANCH  27  30
ATOM     29  C1  UNL     1      20.153   4.692  21.919  0.00  0.00    +0.004 C 
ATOM     30  C2  UNL     1      19.854   5.737  22.993  0.00  0.00    +0.004 C 
ENDBRANCH  27  30
ENDBRANCH  21  27
ENDBRANCH  17  24
ENDBRANCH   1  18
TORSDOF 6
ENDMDL
MODEL 5
REMARK VINA RESULT:    -6.687      7.646      8.736
REMARK INTER + INTRA:          -9.873
REMARK INTER:                  -8.533
REMARK INTRA:                  -1.340
REMARK UNBOUND:                -0.840
REMARK  Name = /home/qwerty/github/datacon2025hack/step_04_hit_selection/docking/ligands/lig_615.pdb
REMARK  9 active torsions:
REMARK  status: ('A' for Active; 'I' for Inactive)
REMARK    1  A    between atoms: C1_1  and  C2_2
REMARK    2  A    between atoms: C2_2  and  C3_3
REMARK    3  A    between atoms: C3_3  and  C4_4
REMARK    4  A    between atoms: C3_3  and  C5_5
REMARK    5  A    between atoms: C8_8  and  N1_9
REMARK    6  A    between atoms: C9_10  and  C10_12
REMARK    7  A    between atoms: C10_12  and  C11_13
REMARK    8  A    between atoms: C12_16  and  C13_17
REMARK    9  A    between atoms: C18_24  and  C19_25
REMARK                            x       y       z     vdW  Elec       q    Type
REMARK                         _______ _______ _______ _____ _____    ______ ____
ROOT
ATOM      1  C10 UNL     1      16.239  -2.162  23.582  0.00  0.00    +0.175 C 
ENDROOT
BRANCH   1   2
ATOM      2  C11 UNL     1      15.837  -1.118  22.586  0.00  0.00    +0.181 A 
ATOM      3  N2  UNL     1      16.563  -0.813  21.493  0.00  0.00    -0.060 NA
ATOM      4  O2  UNL     1      15.932   0.177  20.941  0.00  0.00    -0.331 OA
ATOM      5  C12 UNL     1      14.874   0.476  21.654  0.00  0.00    +0.278 A 
ATOM      6  N5  UNL     1      14.757  -0.324  22.732  0.00  0.00    -0.190 NA
BRANCH   5   7
ATOM      7  C13 UNL     1      13.946   1.563  21.330  0.00  0.00    +0.146 A 
ATOM      8  C14 UNL     1      14.103   2.492  20.320  0.00  0.00    +0.120 A 
ATOM      9  N3  UNL     1      13.029   3.294  20.345  0.00  0.00    -0.333 N 
ATOM     10  C15 UNL     1      12.239   2.822  21.328  0.00  0.00    +0.111 A 
ATOM     11  N4  UNL     1      12.777   1.767  21.976  0.00  0.00    -0.227 NA
ATOM     12  C16 UNL     1      10.938   3.464  21.704  0.00  0.00    +0.075 C 
ATOM     13  C17 UNL     1      10.441   4.393  20.581  0.00  0.00    +0.012 C 
ATOM     14  C18 UNL     1      11.573   5.260  19.978  0.00  0.00    +0.006 C 
ATOM     15  C19 UNL     1      12.132   6.258  21.003  0.00  0.00    +0.009 C 
ATOM     16  C20 UNL     1      12.691   4.362  19.405  0.00  0.00    +0.126 C 
ENDBRANCH   5   7
ENDBRANCH   1   2
BRANCH   1  18
ATOM     17  N1  UNL     1      17.316  -0.198  24.793  0.00  0.00    -0.285 N 
ATOM     18  C9  UNL     1      17.241  -1.614  24.559  0.00  0.00    +0.225 C 
ATOM     19  O1  UNL     1      18.013  -2.406  25.169  0.00  0.00    -0.275 OA
ATOM     20  H12 UNL     1      16.540   0.399  24.426  0.00  0.00    +0.155 HD
BRANCH  17  24
ATOM     21  C5  UNL     1      20.284   1.739  27.162  0.00  0.00    -0.044 A 
ATOM     22  C6  UNL     1      19.002   1.482  27.677  0.00  0.00    +0.006 A 
ATOM     23  C7  UNL     1      18.037   0.841  26.895  0.00  0.00    +0.023 A 
ATOM     24  C8  UNL     1      18.335   0.442  25.583  0.00  0.00    +0.033 A 
ATOM     25  C21 UNL     1      19.604   0.735  25.052  0.00  0.00    +0.023 A 
ATOM     26  C22 UNL     1      20.571   1.370  25.836  0.00  0.00    +0.006 A 
BRANCH  21  27
ATOM     27  C3  UNL     1      21.346   2.445  27.992  0.00  0.00    +0.016 C 
ATOM     28  C4  UNL     1      20.778   2.820  29.367  0.00  0.00    +0.012 C 
BRANCH  27  30
ATOM     29  C1  UNL     1      22.402   0.314  28.928  0.00  0.00    +0.004 C 
ATOM     30  C2  UNL     1      22.634   1.606  28.145  0.00  0.00    +0.004 C 
ENDBRANCH  27  30
ENDBRANCH  21  27
ENDBRANCH  17  24
ENDBRANCH   1  18
TORSDOF 6
ENDMDL
MODEL 6
REMARK VINA RESULT:    -6.672     10.185     12.824
REMARK INTER + INTRA:          -9.853
REMARK INTER:                  -8.604
REMARK INTRA:                  -1.248
REMARK UNBOUND:                -0.840
REMARK  Name = /home/qwerty/github/datacon2025hack/step_04_hit_selection/docking/ligands/lig_615.pdb
REMARK  9 active torsions:
REMARK  status: ('A' for Active; 'I' for Inactive)
REMARK    1  A    between atoms: C1_1  and  C2_2
REMARK    2  A    between atoms: C2_2  and  C3_3
REMARK    3  A    between atoms: C3_3  and  C4_4
REMARK    4  A    between atoms: C3_3  and  C5_5
REMARK    5  A    between atoms: C8_8  and  N1_9
REMARK    6  A    between atoms: C9_10  and  C10_12
REMARK    7  A    between atoms: C10_12  and  C11_13
REMARK    8  A    between atoms: C12_16  and  C13_17
REMARK    9  A    between atoms: C18_24  and  C19_25
REMARK                            x       y       z     vdW  Elec       q    Type
REMARK                         _______ _______ _______ _____ _____    ______ ____
ROOT
ATOM      1  C10 UNL     1      24.064   7.485  34.170  0.00  0.00    +0.175 C 
ENDROOT
BRANCH   1   2
ATOM      2  C11 UNL     1      23.004   7.817  35.174  0.00  0.00    +0.181 A 
ATOM      3  N2  UNL     1      22.865   7.175  36.350  0.00  0.00    -0.060 NA
ATOM      4  O2  UNL     1      21.802   7.690  36.887  0.00  0.00    -0.331 OA
ATOM      5  C12 UNL     1      21.304   8.601  36.087  0.00  0.00    +0.278 A 
ATOM      6  N5  UNL     1      22.033   8.729  34.962  0.00  0.00    -0.190 NA
BRANCH   5   7
ATOM      7  C13 UNL     1      20.088   9.367  36.373  0.00  0.00    +0.146 A 
ATOM      8  C14 UNL     1      19.128   9.049  37.314  0.00  0.00    +0.120 A 
ATOM      9  N3  UNL     1      18.196  10.012  37.275  0.00  0.00    -0.333 N 
ATOM     10  C15 UNL     1      18.619  10.898  36.353  0.00  0.00    +0.111 A 
ATOM     11  N4  UNL     1      19.772  10.527  35.756  0.00  0.00    -0.227 NA
ATOM     12  C16 UNL     1      17.837  12.121  35.982  0.00  0.00    +0.075 C 
ATOM     13  C17 UNL     1      16.786  12.446  37.060  0.00  0.00    +0.012 C 
ATOM     14  C18 UNL     1      16.039  11.188  37.565  0.00  0.00    +0.006 C 
ATOM     15  C19 UNL     1      15.186  10.550  36.459  0.00  0.00    +0.009 C 
ATOM     16  C20 UNL     1      17.039  10.170  38.155  0.00  0.00    +0.126 C 
ENDBRANCH   5   7
ENDBRANCH   1   2
BRANCH   1  18
ATOM     17  N1  UNL     1      22.340   5.860  33.236  0.00  0.00    -0.285 N 
ATOM     18  C9  UNL     1      23.717   6.232  33.416  0.00  0.00    +0.225 C 
ATOM     19  O1  UNL     1      24.642   5.513  32.945  0.00  0.00    -0.275 OA
ATOM     20  H12 UNL     1      21.608   6.572  33.464  0.00  0.00    +0.155 HD
BRANCH  17  24
ATOM     21  C5  UNL     1      21.086   2.124  31.609  0.00  0.00    -0.044 A 
ATOM     22  C6  UNL     1      21.279   2.283  32.993  0.00  0.00    +0.006 A 
ATOM     23  C7  UNL     1      21.684   3.514  33.518  0.00  0.00    +0.023 A 
ATOM     24  C8  UNL     1      21.903   4.611  32.671  0.00  0.00    +0.033 A 
ATOM     25  C21 UNL     1      21.750   4.443  31.283  0.00  0.00    +0.023 A 
ATOM     26  C22 UNL     1      21.338   3.215  30.759  0.00  0.00    +0.006 A 
BRANCH  21  27
ATOM     27  C3  UNL     1      20.656   0.792  31.016  0.00  0.00    +0.016 C 
ATOM     28  C4  UNL     1      19.160   0.561  31.265  0.00  0.00    +0.012 C 
BRANCH  27  30
ATOM     29  C1  UNL     1      22.256  -0.121  29.244  0.00  0.00    +0.004 C 
ATOM     30  C2  UNL     1      20.982   0.680  29.510  0.00  0.00    +0.004 C 
ENDBRANCH  27  30
ENDBRANCH  21  27
ENDBRANCH  17  24
ENDBRANCH   1  18
TORSDOF 6
ENDMDL
MODEL 7
REMARK VINA RESULT:    -6.661      7.416     11.487
REMARK INTER + INTRA:          -9.838
REMARK INTER:                  -8.811
REMARK INTRA:                  -1.027
REMARK UNBOUND:                -0.840
REMARK  Name = /home/qwerty/github/datacon2025hack/step_04_hit_selection/docking/ligands/lig_615.pdb
REMARK  9 active torsions:
REMARK  status: ('A' for Active; 'I' for Inactive)
REMARK    1  A    between atoms: C1_1  and  C2_2
REMARK    2  A    between atoms: C2_2  and  C3_3
REMARK    3  A    between atoms: C3_3  and  C4_4
REMARK    4  A    between atoms: C3_3  and  C5_5
REMARK    5  A    between atoms: C8_8  and  N1_9
REMARK    6  A    between atoms: C9_10  and  C10_12
REMARK    7  A    between atoms: C10_12  and  C11_13
REMARK    8  A    between atoms: C12_16  and  C13_17
REMARK    9  A    between atoms: C18_24  and  C19_25
REMARK                            x       y       z     vdW  Elec       q    Type
REMARK                         _______ _______ _______ _____ _____    ______ ____
ROOT
ATOM      1  C10 UNL     1      16.545   4.973  19.775  0.00  0.00    +0.175 C 
ENDROOT
BRANCH   1   2
ATOM      2  C11 UNL     1      15.064   4.827  19.940  0.00  0.00    +0.181 A 
ATOM      3  N2  UNL     1      14.379   3.725  19.576  0.00  0.00    -0.060 NA
ATOM      4  O2  UNL     1      13.135   4.017  19.802  0.00  0.00    -0.331 OA
ATOM      5  C12 UNL     1      13.049   5.235  20.276  0.00  0.00    +0.278 A 
ATOM      6  N5  UNL     1      14.261   5.814  20.387  0.00  0.00    -0.190 NA
BRANCH   5   7
ATOM      7  C13 UNL     1      11.786   5.894  20.619  0.00  0.00    +0.146 A 
ATOM      8  C14 UNL     1      11.498   7.235  20.452  0.00  0.00    +0.120 A 
ATOM      9  N3  UNL     1      10.237   7.426  20.867  0.00  0.00    -0.333 N 
ATOM     10  C15 UNL     1       9.782   6.213  21.236  0.00  0.00    +0.111 A 
ATOM     11  N4  UNL     1      10.713   5.243  21.120  0.00  0.00    -0.227 NA
ATOM     12  C16 UNL     1       8.408   5.996  21.794  0.00  0.00    +0.075 C 
ATOM     13  C17 UNL     1       7.491   7.191  21.472  0.00  0.00    +0.012 C 
ATOM     14  C18 UNL     1       8.191   8.555  21.679  0.00  0.00    +0.006 C 
ATOM     15  C19 UNL     1       8.536   8.799  23.156  0.00  0.00    +0.009 C 
ATOM     16  C20 UNL     1       9.449   8.656  20.789  0.00  0.00    +0.126 C 
ENDBRANCH   5   7
ENDBRANCH   1   2
BRANCH   1  18
ATOM     17  N1  UNL     1      16.903   7.375  19.008  0.00  0.00    -0.285 N 
ATOM     18  C9  UNL     1      16.979   6.386  20.048  0.00  0.00    +0.225 C 
ATOM     19  O1  UNL     1      17.411   6.692  21.195  0.00  0.00    -0.275 OA
ATOM     20  H12 UNL     1      16.363   7.136  18.146  0.00  0.00    +0.155 HD
BRANCH  17  24
ATOM     21  C5  UNL     1      18.536  11.298  19.359  0.00  0.00    -0.044 A 
ATOM     22  C6  UNL     1      19.367  10.185  19.143  0.00  0.00    +0.006 A 
ATOM     23  C7  UNL     1      18.822   8.903  19.024  0.00  0.00    +0.023 A 
ATOM     24  C8  UNL     1      17.436   8.708  19.115  0.00  0.00    +0.033 A 
ATOM     25  C21 UNL     1      16.606   9.814  19.371  0.00  0.00    +0.023 A 
ATOM     26  C22 UNL     1      17.150  11.097  19.484  0.00  0.00    +0.006 A 
BRANCH  21  27
ATOM     27  C3  UNL     1      19.109  12.699  19.503  0.00  0.00    +0.016 C 
ATOM     28  C4  UNL     1      19.477  12.972  20.968  0.00  0.00    +0.012 C 
BRANCH  27  30
ATOM     29  C1  UNL     1      21.613  13.193  19.364  0.00  0.00    +0.004 C 
ATOM     30  C2  UNL     1      20.325  12.940  18.581  0.00  0.00    +0.004 C 
ENDBRANCH  27  30
ENDBRANCH  21  27
ENDBRANCH  17  24
ENDBRANCH   1  18
TORSDOF 6
ENDMDL
MODEL 8
REMARK VINA RESULT:    -6.616      4.365      7.657
REMARK INTER + INTRA:          -9.777
REMARK INTER:                  -8.766
REMARK INTRA:                  -1.011
REMARK UNBOUND:                -0.840
REMARK  Name = /home/qwerty/github/datacon2025hack/step_04_hit_selection/docking/ligands/lig_615.pdb
REMARK  9 active torsions:
REMARK  status: ('A' for Active; 'I' for Inactive)
REMARK    1  A    between atoms: C1_1  and  C2_2
REMARK    2  A    between atoms: C2_2  and  C3_3
REMARK    3  A    between atoms: C3_3  and  C4_4
REMARK    4  A    between atoms: C3_3  and  C5_5
REMARK    5  A    between atoms: C8_8  and  N1_9
REMARK    6  A    between atoms: C9_10  and  C10_12
REMARK    7  A    between atoms: C10_12  and  C11_13
REMARK    8  A    between atoms: C12_16  and  C13_17
REMARK    9  A    between atoms: C18_24  and  C19_25
REMARK                            x       y       z     vdW  Elec       q    Type
REMARK                         _______ _______ _______ _____ _____    ______ ____
ROOT
ATOM      1  C10 UNL     1      21.135   5.700  22.596  0.00  0.00    +0.175 C 
ENDROOT
BRANCH   1   2
ATOM      2  C11 UNL     1      19.880   5.184  21.963  0.00  0.00    +0.181 A 
ATOM      3  N2  UNL     1      19.347   5.701  20.838  0.00  0.00    -0.060 NA
ATOM      4  O2  UNL     1      18.241   5.045  20.663  0.00  0.00    -0.331 OA
ATOM      5  C12 UNL     1      18.091   4.172  21.628  0.00  0.00    +0.278 A 
ATOM      6  N5  UNL     1      19.115   4.213  22.502  0.00  0.00    -0.190 NA
BRANCH   5   7
ATOM      7  C13 UNL     1      16.937   3.278  21.752  0.00  0.00    +0.146 A 
ATOM      8  C14 UNL     1      16.045   2.956  20.748  0.00  0.00    +0.120 A 
ATOM      9  N3  UNL     1      15.155   2.096  21.264  0.00  0.00    -0.333 N 
ATOM     10  C15 UNL     1      15.539   1.889  22.538  0.00  0.00    +0.111 A 
ATOM     11  N4  UNL     1      16.621   2.616  22.887  0.00  0.00    -0.227 NA
ATOM     12  C16 UNL     1      14.782   1.003  23.481  0.00  0.00    +0.075 C 
ATOM     13  C17 UNL     1      13.838   0.063  22.710  0.00  0.00    +0.012 C 
ATOM     14  C18 UNL     1      13.082   0.781  21.566  0.00  0.00    +0.006 C 
ATOM     15  C19 UNL     1      12.113   1.844  22.104  0.00  0.00    +0.009 C 
ATOM     16  C20 UNL     1      14.082   1.394  20.562  0.00  0.00    +0.126 C 
ENDBRANCH   5   7
ENDBRANCH   1   2
BRANCH   1  18
ATOM     17  N1  UNL     1      21.594   3.649  24.034  0.00  0.00    -0.285 N 
ATOM     18  C9  UNL     1      21.359   5.064  23.940  0.00  0.00    +0.225 C 
ATOM     19  O1  UNL     1      21.338   5.781  24.979  0.00  0.00    -0.275 OA
ATOM     20  H12 UNL     1      21.799   3.128  23.151  0.00  0.00    +0.155 HD
BRANCH  17  24
ATOM     21  C5  UNL     1      21.871   1.486  27.698  0.00  0.00    -0.044 A 
ATOM     22  C6  UNL     1      22.776   2.519  27.397  0.00  0.00    +0.006 A 
ATOM     23  C7  UNL     1      22.673   3.227  26.195  0.00  0.00    +0.023 A 
ATOM     24  C8  UNL     1      21.664   2.918  25.272  0.00  0.00    +0.033 A 
ATOM     25  C21 UNL     1      20.783   1.858  25.553  0.00  0.00    +0.023 A 
ATOM     26  C22 UNL     1      20.881   1.155  26.757  0.00  0.00    +0.006 A 
BRANCH  21  27
ATOM     27  C3  UNL     1      21.972   0.697  28.994  0.00  0.00    +0.016 C 
ATOM     28  C4  UNL     1      23.439   0.567  29.422  0.00  0.00    +0.012 C 
BRANCH  27  30
ATOM     29  C1  UNL     1      21.960   2.160  31.090  0.00  0.00    +0.004 C 
ATOM     30  C2  UNL     1      21.125   1.313  30.131  0.00  0.00    +0.004 C 
ENDBRANCH  27  30
ENDBRANCH  21  27
ENDBRANCH  17  24
ENDBRANCH   1  18
TORSDOF 6
ENDMDL
MODEL 9
REMARK VINA RESULT:    -6.593     10.236     12.443
REMARK INTER + INTRA:          -9.745
REMARK INTER:                  -8.557
REMARK INTRA:                  -1.188
REMARK UNBOUND:                -0.840
REMARK  Name = /home/qwerty/github/datacon2025hack/step_04_hit_selection/docking/ligands/lig_615.pdb
REMARK  9 active torsions:
REMARK  status: ('A' for Active; 'I' for Inactive)
REMARK    1  A    between atoms: C1_1  and  C2_2
REMARK    2  A    between atoms: C2_2  and  C3_3
REMARK    3  A    between atoms: C3_3  and  C4_4
REMARK    4  A    between atoms: C3_3  and  C5_5
REMARK    5  A    between atoms: C8_8  and  N1_9
REMARK    6  A    between atoms: C9_10  and  C10_12
REMARK    7  A    between atoms: C10_12  and  C11_13
REMARK    8  A    between atoms: C12_16  and  C13_17
REMARK    9  A    between atoms: C18_24  and  C19_25
REMARK                            x       y       z     vdW  Elec       q    Type
REMARK                         _______ _______ _______ _____ _____    ______ ____
ROOT
ATOM      1  C10 UNL     1      23.447   6.760  36.139  0.00  0.00    +0.175 C 
ENDROOT
BRANCH   1   2
ATOM      2  C11 UNL     1      22.212   7.544  36.455  0.00  0.00    +0.181 A 
ATOM      3  N2  UNL     1      21.291   7.152  37.357  0.00  0.00    -0.060 NA
ATOM      4  O2  UNL     1      20.351   8.043  37.282  0.00  0.00    -0.331 OA
ATOM      5  C12 UNL     1      20.666   8.939  36.380  0.00  0.00    +0.278 A 
ATOM      6  N5  UNL     1      21.856   8.672  35.806  0.00  0.00    -0.190 NA
BRANCH   5   7
ATOM      7  C13 UNL     1      19.816  10.077  36.022  0.00  0.00    +0.146 A 
ATOM      8  C14 UNL     1      18.756  10.564  36.761  0.00  0.00    +0.120 A 
ATOM      9  N3  UNL     1      18.260  11.620  36.099  0.00  0.00    -0.333 N 
ATOM     10  C15 UNL     1      19.039  11.773  35.011  0.00  0.00    +0.111 A 
ATOM     11  N4  UNL     1      19.998  10.828  34.913  0.00  0.00    -0.227 NA
ATOM     12  C16 UNL     1      18.799  12.836  33.983  0.00  0.00    +0.075 C 
ATOM     13  C17 UNL     1      17.889  13.944  34.544  0.00  0.00    +0.012 C 
ATOM     14  C18 UNL     1      16.695  13.385  35.354  0.00  0.00    +0.006 C 
ATOM     15  C19 UNL     1      15.728  12.588  34.465  0.00  0.00    +0.009 C 
ATOM     16  C20 UNL     1      17.200  12.528  36.536  0.00  0.00    +0.126 C 
ENDBRANCH   5   7
ENDBRANCH   1   2
BRANCH   1  18
ATOM     17  N1  UNL     1      22.023   5.534  34.420  0.00  0.00    -0.285 N 
ATOM     18  C9  UNL     1      23.306   6.039  34.827  0.00  0.00    +0.225 C 
ATOM     19  O1  UNL     1      24.320   5.882  34.091  0.00  0.00    -0.275 OA
ATOM     20  H12 UNL     1      21.182   5.851  34.953  0.00  0.00    +0.155 HD
BRANCH  17  24
ATOM     21  C5  UNL     1      21.338   3.107  30.983  0.00  0.00    -0.044 A 
ATOM     22  C6  UNL     1      21.335   4.509  30.890  0.00  0.00    +0.006 A 
ATOM     23  C7  UNL     1      21.567   5.297  32.022  0.00  0.00    +0.023 A 
ATOM     24  C8  UNL     1      21.808   4.699  33.268  0.00  0.00    +0.033 A 
ATOM     25  C21 UNL     1      21.770   3.297  33.370  0.00  0.00    +0.023 A 
ATOM     26  C22 UNL     1      21.545   2.509  32.238  0.00  0.00    +0.006 A 
BRANCH  21  27
ATOM     27  C3  UNL     1      21.077   2.231  29.766  0.00  0.00    +0.016 C 
ATOM     28  C4  UNL     1      22.110   2.528  28.671  0.00  0.00    +0.012 C 
BRANCH  27  30
ATOM     29  C1  UNL     1      22.092  -0.068  29.303  0.00  0.00    +0.004 C 
ATOM     30  C2  UNL     1      21.066   0.725  30.111  0.00  0.00    +0.004 C 
ENDBRANCH  27  30
ENDBRANCH  21  27
ENDBRANCH  17  24
ENDBRANCH   1  18
TORSDOF 6
ENDMDL
