REMARK  Name = /home/qwerty/github/datacon2025hack/step_04_hit_selection/docking/ligands/lig_274.pdb
REMARK  5 active torsions:
REMARK  status: ('A' for Active; 'I' for Inactive)
REMARK    1  A    between atoms: C1_1  and  C2_2
REMARK    2  A    between atoms: C4_4  and  N1_5
REMARK    3  A    between atoms: C10_12  and  C11_14
REMARK    4  A    between atoms: C14_17  and  N3_18
REMARK    5  A    between atoms: C19_23  and  N4_24
REMARK                            x       y       z     vdW  Elec       q    Type
REMARK                         _______ _______ _______ _____ _____    ______ ____
ROOT
ATOM      1  C11 UNL     1      -0.908   0.035  -1.312  0.00  0.00    +0.039 A 
ATOM      2  C12 UNL     1      -1.559   1.260  -1.507  0.00  0.00    +0.015 A 
ATOM      3  C13 UNL     1      -2.741   1.548  -0.823  0.00  0.00    +0.026 A 
ATOM      4  C14 UNL     1      -3.296   0.615   0.063  0.00  0.00    +0.060 A 
ATOM      5  C19 UNL     1      -2.649  -0.625   0.272  0.00  0.00    +0.148 A 
ATOM      6  C20 UNL     1      -1.468  -0.908  -0.437  0.00  0.00    +0.047 A 
ENDROOT
BRANCH   1  13
ATOM      7  C1  UNL     1       1.999  -2.778  -3.014  0.00  0.00    +0.028 C 
ATOM      8  C2  UNL     1       2.505  -1.592  -2.187  0.00  0.00    +0.075 C 
ATOM      9  C3  UNL     1       3.534  -2.025  -1.142  0.00  0.00    +0.042 C 
ATOM     10  C4  UNL     1       3.254  -1.161   0.102  0.00  0.00    +0.076 C 
ATOM     11  C9  UNL     1       1.747  -0.862  -0.015  0.00  0.00    +0.127 C 
ATOM     12  N2  UNL     1       1.422  -0.985  -1.428  0.00  0.00    -0.293 N 
ATOM     13  C10 UNL     1       0.339  -0.265  -2.048  0.00  0.00    +0.247 C 
ATOM     14  O1  UNL     1       0.457   0.131  -3.240  0.00  0.00    -0.270 OA
BRANCH  10  15
ATOM     15  N1  UNL     1       4.073   0.083   0.088  0.00  0.00    -0.298 NA
ATOM     16  C5  UNL     1       3.778   0.970   1.225  0.00  0.00    +0.085 C 
ATOM     17  C6  UNL     1       5.049   1.724   1.543  0.00  0.00    +0.017 C 
ATOM     18  C7  UNL     1       6.151   0.766   1.169  0.00  0.00    +0.017 C 
ATOM     19  C8  UNL     1       5.521  -0.199   0.171  0.00  0.00    +0.085 C 
ENDBRANCH  10  15
ENDBRANCH   1  13
BRANCH   4  20
ATOM     20  N3  UNL     1      -4.553   0.911   0.686  0.00  0.00    -0.328 N 
ATOM     21  C15 UNL     1      -4.739   2.013   1.610  0.00  0.00    +0.105 C 
ATOM     22  C16 UNL     1      -6.212   1.969   1.995  0.00  0.00    +0.020 C 
ATOM     23  C17 UNL     1      -6.900   1.127   0.921  0.00  0.00    +0.020 C 
ATOM     24  C18 UNL     1      -5.801   0.296   0.270  0.00  0.00    +0.105 C 
ENDBRANCH   4  20
BRANCH   5  25
ATOM     25  N4  UNL     1      -3.159  -1.592   1.208  0.00  0.00    +0.058 N 
ATOM     26  O2  UNL     1      -3.775  -1.225   2.230  0.00  0.00    -0.126 OA
ATOM     27  O3  UNL     1      -2.842  -2.924   1.068  0.00  0.00    -0.126 OA
ENDBRANCH   5  25
TORSDOF 4
