REMARK  Name = /home/qwerty/github/datacon2025hack/step_04_hit_selection/docking/ligands/lig_281.pdb
REMARK  7 active torsions:
REMARK  status: ('A' for Active; 'I' for Inactive)
REMARK    1  A    between atoms: C1_1  and  C2_2
REMARK    2  A    between atoms: C2_2  and  C3_3
REMARK    3  A    between atoms: C2_2  and  N1_4
REMARK    4  A    between atoms: C4_5  and  C5_7
REMARK    5  A    between atoms: C9_14  and  N5_15
REMARK    6  A    between atoms: N6_22  and  C16_23
REMARK    7  A    between atoms: C16_23  and  C17_24
REMARK                            x       y       z     vdW  Elec       q    Type
REMARK                         _______ _______ _______ _____ _____    ______ ____
ROOT
ATOM      1  C5  UNL     1      -2.350  -1.344   0.567  0.00  0.00    +0.221 A 
ATOM      2  N2  UNL     1      -1.623  -2.421   0.216  0.00  0.00    -0.123 NA
ATOM      3  N3  UNL     1      -0.351  -2.059   0.230  0.00  0.00    -0.113 NA
ATOM      4  C6  UNL     1      -0.314  -0.764   0.595  0.00  0.00    +0.220 A 
ATOM      5  N4  UNL     1       0.915  -0.014   0.638  0.00  0.00    -0.298 N 
ATOM      6  C7  UNL     1       1.197   1.065   1.569  0.00  0.00    +0.109 C 
ATOM      7  C8  UNL     1       2.714   1.172   1.621  0.00  0.00    +0.039 C 
ATOM      8  C9  UNL     1       3.220   0.526   0.322  0.00  0.00    +0.075 C 
ATOM      9  C15 UNL     1       2.122  -0.497  -0.011  0.00  0.00    +0.126 C 
ATOM     10  N6  UNL     1      -1.559  -0.269   0.819  0.00  0.00    -0.291 N 
ENDROOT
BRANCH   8  11
ATOM     11  N5  UNL     1       4.561  -0.101   0.479  0.00  0.00    -0.298 NA
ATOM     12  C10 UNL     1       5.616   0.898   0.819  0.00  0.00    +0.085 C 
ATOM     13  C11 UNL     1       6.422   1.358  -0.405  0.00  0.00    +0.015 C 
ATOM     14  C12 UNL     1       7.153   0.175  -1.060  0.00  0.00    +0.002 C 
ATOM     15  C13 UNL     1       6.422  -1.159  -0.842  0.00  0.00    +0.015 C 
ATOM     16  C14 UNL     1       4.911  -0.938  -0.704  0.00  0.00    +0.085 C 
ENDBRANCH   8  11
BRANCH   1  18
ATOM     17  N1  UNL     1      -4.546  -2.338  -0.172  0.00  0.00    -0.306 N 
ATOM     18  C4  UNL     1      -3.827  -1.384   0.625  0.00  0.00    +0.282 C 
ATOM     19  O1  UNL     1      -4.455  -0.613   1.398  0.00  0.00    -0.267 OA
ATOM     20  H8  UNL     1      -4.009  -2.927  -0.849  0.00  0.00    +0.149 HD
BRANCH  17  22
ATOM     21  C1  UNL     1      -6.419  -3.214   1.156  0.00  0.00    +0.027 C 
ATOM     22  C2  UNL     1      -6.006  -2.464  -0.114  0.00  0.00    +0.067 C 
ATOM     23  C3  UNL     1      -6.528  -3.192  -1.358  0.00  0.00    +0.027 C 
ENDBRANCH  17  22
ENDBRANCH   1  18
BRANCH  10  24
ATOM     24  C16 UNL     1      -1.960   1.138   0.968  0.00  0.00    +0.132 C 
BRANCH  24  25
ATOM     25  C17 UNL     1      -1.789   1.898  -0.361  0.00  0.00    +0.037 C 
ATOM     26  C18 UNL     1      -2.101   3.363  -0.242  0.00  0.00    +0.035 C 
ATOM     27  C19 UNL     1      -2.605   3.713  -1.631  0.00  0.00    +0.160 C 
ATOM     28  O2  UNL     1      -3.003   2.538  -2.304  0.00  0.00    -0.379 OA
ATOM     29  C20 UNL     1      -2.759   1.451  -1.442  0.00  0.00    +0.165 C 
ENDBRANCH  24  25
ENDBRANCH  10  24
TORSDOF 5
