MODEL 1
REMARK VINA RESULT:    -6.055      0.000      0.000
REMARK INTER + INTRA:          -8.479
REMARK INTER:                  -8.179
REMARK INTRA:                  -0.300
REMARK UNBOUND:                -0.300
REMARK  Name = /home/qwerty/github/datacon2025hack/step_04_hit_selection/docking/ligands/lig_136.pdb
REMARK  9 active torsions:
REMARK  status: ('A' for Active; 'I' for Inactive)
REMARK    1  A    between atoms: C1_1  and  C2_2
REMARK    2  A    between atoms: C3_4  and  C4_5
REMARK    3  A    between atoms: C5_6  and  C6_7
REMARK    4  A    between atoms: N2_9  and  C7_10
REMARK    5  A    between atoms: C7_10  and  C8_11
REMARK    6  A    between atoms: C7_10  and  C9_12
REMARK    7  A    between atoms: N3_14  and  C11_15
REMARK    8  A    between atoms: C11_15  and  C12_16
REMARK    9  A    between atoms: C13_18  and  C14_19
REMARK                            x       y       z     vdW  Elec       q    Type
REMARK                         _______ _______ _______ _____ _____    ______ ____
ROOT
ATOM      1  C7  UNL     1      20.050  10.869  36.053  0.00  0.00    +0.076 C 
ATOM      2  C8  UNL     1      20.536  12.328  35.967  0.00  0.00    +0.028 C 
ENDROOT
BRANCH   1   5
ATOM      3  C6  UNL     1      21.337   8.678  36.159  0.00  0.00    +0.281 C 
ATOM      4  O1  UNL     1      20.651   8.295  37.146  0.00  0.00    -0.267 OA
ATOM      5  N2  UNL     1      21.115   9.976  35.586  0.00  0.00    -0.306 N 
ATOM      6  H7  UNL     1      21.708  10.272  34.777  0.00  0.00    +0.149 HD
BRANCH   3  12
ATOM      7  C1  UNL     1      24.229   6.467  32.876  0.00  0.00    +0.109 C 
ATOM      8  C2  UNL     1      23.621   6.837  34.185  0.00  0.00    +0.194 A 
ATOM      9  N1  UNL     1      23.995   6.283  35.358  0.00  0.00    -0.218 NA
ATOM     10  C3  UNL     1      23.194   6.895  36.251  0.00  0.00    +0.089 A 
ATOM     11  C4  UNL     1      23.234   6.612  37.721  0.00  0.00    +0.070 C 
ATOM     12  C5  UNL     1      22.370   7.791  35.591  0.00  0.00    +0.212 A 
ATOM     13  O3  UNL     1      22.660   7.726  34.316  0.00  0.00    -0.435 OA
ENDBRANCH   3  12
ENDBRANCH   1   5
BRANCH   1  14
ATOM     14  C9  UNL     1      18.737  10.533  35.293  0.00  0.00    +0.037 C 
ATOM     15  C10 UNL     1      17.590   9.919  36.088  0.00  0.00    +0.091 C 
ATOM     16  N3  UNL     1      16.673  11.025  35.765  0.00  0.00    -0.293 NA
ATOM     17  C17 UNL     1      17.768  11.679  35.028  0.00  0.00    +0.091 C 
BRANCH  16  18
ATOM     18  C11 UNL     1      16.265  11.772  36.969  0.00  0.00    +0.183 C 
BRANCH  18  19
ATOM     19  C12 UNL     1      14.835  12.189  36.846  0.00  0.00    +0.241 A 
ATOM     20  N4  UNL     1      13.801  11.330  36.819  0.00  0.00    -0.195 NA
ATOM     21  C13 UNL     1      12.755  12.181  36.741  0.00  0.00    +0.175 A 
ATOM     22  N5  UNL     1      13.137  13.474  36.711  0.00  0.00    -0.061 NA
ATOM     23  O2  UNL     1      14.431  13.436  36.786  0.00  0.00    -0.337 OA
BRANCH  21  24
ATOM     24  C14 UNL     1      11.333  11.728  36.660  0.00  0.00    +0.060 C 
ATOM     25  C15 UNL     1      11.121  10.311  37.179  0.00  0.00    +0.012 C 
ATOM     26  C16 UNL     1      10.637  11.501  37.998  0.00  0.00    +0.012 C 
ENDBRANCH  21  24
ENDBRANCH  18  19
ENDBRANCH  16  18
ENDBRANCH   1  14
TORSDOF 6
ENDMDL
MODEL 2
REMARK VINA RESULT:    -6.049      7.846     10.660
REMARK INTER + INTRA:          -8.471
REMARK INTER:                  -7.664
REMARK INTRA:                  -0.806
REMARK UNBOUND:                -0.300
REMARK  Name = /home/qwerty/github/datacon2025hack/step_04_hit_selection/docking/ligands/lig_136.pdb
REMARK  9 active torsions:
REMARK  status: ('A' for Active; 'I' for Inactive)
REMARK    1  A    between atoms: C1_1  and  C2_2
REMARK    2  A    between atoms: C3_4  and  C4_5
REMARK    3  A    between atoms: C5_6  and  C6_7
REMARK    4  A    between atoms: N2_9  and  C7_10
REMARK    5  A    between atoms: C7_10  and  C8_11
REMARK    6  A    between atoms: C7_10  and  C9_12
REMARK    7  A    between atoms: N3_14  and  C11_15
REMARK    8  A    between atoms: C11_15  and  C12_16
REMARK    9  A    between atoms: C13_18  and  C14_19
REMARK                            x       y       z     vdW  Elec       q    Type
REMARK                         _______ _______ _______ _____ _____    ______ ____
ROOT
ATOM      1  C7  UNL     1      18.770   1.789  32.977  0.00  0.00    +0.076 C 
ATOM      2  C8  UNL     1      18.002   0.602  33.588  0.00  0.00    +0.028 C 
ENDROOT
BRANCH   1   5
ATOM      3  C6  UNL     1      19.874   1.622  30.692  0.00  0.00    +0.281 C 
ATOM      4  O1  UNL     1      18.965   2.326  30.174  0.00  0.00    -0.267 OA
ATOM      5  N2  UNL     1      19.817   1.281  32.086  0.00  0.00    -0.306 N 
ATOM      6  H7  UNL     1      20.578   0.683  32.485  0.00  0.00    +0.149 HD
BRANCH   3  12
ATOM      7  C1  UNL     1      23.235  -1.368  28.744  0.00  0.00    +0.109 C 
ATOM      8  C2  UNL     1      22.448  -0.133  29.019  0.00  0.00    +0.194 A 
ATOM      9  N1  UNL     1      22.695   1.052  28.421  0.00  0.00    -0.218 NA
ATOM     10  C3  UNL     1      21.769   1.865  28.964  0.00  0.00    +0.089 A 
ATOM     11  C4  UNL     1      21.636   3.314  28.609  0.00  0.00    +0.070 C 
ATOM     12  C5  UNL     1      21.000   1.147  29.865  0.00  0.00    +0.212 A 
ATOM     13  O3  UNL     1      21.449  -0.082  29.874  0.00  0.00    -0.435 OA
ENDBRANCH   3  12
ENDBRANCH   1   5
BRANCH   1  14
ATOM     14  C9  UNL     1      19.401   2.793  33.981  0.00  0.00    +0.037 C 
ATOM     15  C10 UNL     1      20.918   2.803  34.122  0.00  0.00    +0.091 C 
ATOM     16  N3  UNL     1      21.022   4.216  33.718  0.00  0.00    -0.293 NA
ATOM     17  C17 UNL     1      19.563   4.237  33.520  0.00  0.00    +0.091 C 
BRANCH  16  18
ATOM     18  C11 UNL     1      21.774   4.375  32.460  0.00  0.00    +0.183 C 
BRANCH  18  19
ATOM     19  C12 UNL     1      22.775   5.477  32.604  0.00  0.00    +0.241 A 
ATOM     20  N4  UNL     1      22.464   6.785  32.566  0.00  0.00    -0.195 NA
ATOM     21  C13 UNL     1      23.673   7.347  32.779  0.00  0.00    +0.175 A 
ATOM     22  N5  UNL     1      24.654   6.435  32.925  0.00  0.00    -0.061 NA
ATOM     23  O2  UNL     1      24.055   5.289  32.818  0.00  0.00    -0.337 OA
BRANCH  21  24
ATOM     24  C14 UNL     1      23.895   8.825  32.812  0.00  0.00    +0.060 C 
ATOM     25  C15 UNL     1      25.309   9.232  32.419  0.00  0.00    +0.012 C 
ATOM     26  C16 UNL     1      24.152   9.482  31.460  0.00  0.00    +0.012 C 
ENDBRANCH  21  24
ENDBRANCH  18  19
ENDBRANCH  16  18
ENDBRANCH   1  14
TORSDOF 6
ENDMDL
MODEL 3
REMARK VINA RESULT:    -5.963     12.346     14.458
REMARK INTER + INTRA:          -8.354
REMARK INTER:                  -7.512
REMARK INTRA:                  -0.842
REMARK UNBOUND:                -0.300
REMARK  Name = /home/qwerty/github/datacon2025hack/step_04_hit_selection/docking/ligands/lig_136.pdb
REMARK  9 active torsions:
REMARK  status: ('A' for Active; 'I' for Inactive)
REMARK    1  A    between atoms: C1_1  and  C2_2
REMARK    2  A    between atoms: C3_4  and  C4_5
REMARK    3  A    between atoms: C5_6  and  C6_7
REMARK    4  A    between atoms: N2_9  and  C7_10
REMARK    5  A    between atoms: C7_10  and  C8_11
REMARK    6  A    between atoms: C7_10  and  C9_12
REMARK    7  A    between atoms: N3_14  and  C11_15
REMARK    8  A    between atoms: C11_15  and  C12_16
REMARK    9  A    between atoms: C13_18  and  C14_19
REMARK                            x       y       z     vdW  Elec       q    Type
REMARK                         _______ _______ _______ _____ _____    ______ ____
ROOT
ATOM      1  C7  UNL     1      21.809   4.486  25.780  0.00  0.00    +0.076 C 
ATOM      2  C8  UNL     1      23.080   5.245  25.353  0.00  0.00    +0.028 C 
ENDROOT
BRANCH   1   5
ATOM      3  C6  UNL     1      22.095   3.045  27.856  0.00  0.00    +0.281 C 
ATOM      4  O1  UNL     1      21.737   4.000  28.598  0.00  0.00    -0.267 OA
ATOM      5  N2  UNL     1      22.191   3.232  26.435  0.00  0.00    -0.306 N 
ATOM      6  H7  UNL     1      22.504   2.426  25.846  0.00  0.00    +0.149 HD
BRANCH   3  12
ATOM      7  C1  UNL     1      24.657  -0.904  29.223  0.00  0.00    +0.109 C 
ATOM      8  C2  UNL     1      23.510   0.030  29.042  0.00  0.00    +0.194 A 
ATOM      9  N1  UNL     1      22.263  -0.233  29.488  0.00  0.00    -0.218 NA
ATOM     10  C3  UNL     1      21.568   0.855  29.106  0.00  0.00    +0.089 A 
ATOM     11  C4  UNL     1      20.107   1.037  29.380  0.00  0.00    +0.070 C 
ATOM     12  C5  UNL     1      22.414   1.732  28.447  0.00  0.00    +0.212 A 
ATOM     13  O3  UNL     1      23.604   1.188  28.425  0.00  0.00    -0.435 OA
ENDBRANCH   3  12
ENDBRANCH   1   5
BRANCH   1  14
ATOM     14  C9  UNL     1      20.778   4.180  24.658  0.00  0.00    +0.037 C 
ATOM     15  C10 UNL     1      20.858   2.825  23.967  0.00  0.00    +0.091 C 
ATOM     16  N3  UNL     1      19.488   2.456  24.364  0.00  0.00    -0.293 NA
ATOM     17  C17 UNL     1      19.385   3.734  25.089  0.00  0.00    +0.091 C 
BRANCH  16  18
ATOM     18  C11 UNL     1      19.470   1.285  25.261  0.00  0.00    +0.183 C 
BRANCH  18  19
ATOM     19  C12 UNL     1      18.582   0.226  24.693  0.00  0.00    +0.241 A 
ATOM     20  N4  UNL     1      17.777   0.409  23.631  0.00  0.00    -0.195 NA
ATOM     21  C13 UNL     1      17.237  -0.821  23.497  0.00  0.00    +0.175 A 
ATOM     22  N5  UNL     1      17.679  -1.689  24.429  0.00  0.00    -0.061 NA
ATOM     23  O2  UNL     1      18.516  -1.004  25.144  0.00  0.00    -0.337 OA
BRANCH  21  24
ATOM     24  C14 UNL     1      16.228  -1.163  22.448  0.00  0.00    +0.060 C 
ATOM     25  C15 UNL     1      15.950  -0.019  21.482  0.00  0.00    +0.012 C 
ATOM     26  C16 UNL     1      16.758  -1.224  21.020  0.00  0.00    +0.012 C 
ENDBRANCH  21  24
ENDBRANCH  18  19
ENDBRANCH  16  18
ENDBRANCH   1  14
TORSDOF 6
ENDMDL
MODEL 4
REMARK VINA RESULT:    -5.887      4.817      8.960
REMARK INTER + INTRA:          -8.252
REMARK INTER:                  -7.628
REMARK INTRA:                  -0.623
REMARK UNBOUND:                -0.300
REMARK  Name = /home/qwerty/github/datacon2025hack/step_04_hit_selection/docking/ligands/lig_136.pdb
REMARK  9 active torsions:
REMARK  status: ('A' for Active; 'I' for Inactive)
REMARK    1  A    between atoms: C1_1  and  C2_2
REMARK    2  A    between atoms: C3_4  and  C4_5
REMARK    3  A    between atoms: C5_6  and  C6_7
REMARK    4  A    between atoms: N2_9  and  C7_10
REMARK    5  A    between atoms: C7_10  and  C8_11
REMARK    6  A    between atoms: C7_10  and  C9_12
REMARK    7  A    between atoms: N3_14  and  C11_15
REMARK    8  A    between atoms: C11_15  and  C12_16
REMARK    9  A    between atoms: C13_18  and  C14_19
REMARK                            x       y       z     vdW  Elec       q    Type
REMARK                         _______ _______ _______ _____ _____    ______ ____
ROOT
ATOM      1  C7  UNL     1      23.916   8.483  32.579  0.00  0.00    +0.076 C 
ATOM      2  C8  UNL     1      25.217   9.304  32.663  0.00  0.00    +0.028 C 
ENDROOT
BRANCH   1   5
ATOM      3  C6  UNL     1      21.905   8.827  34.097  0.00  0.00    +0.281 C 
ATOM      4  O1  UNL     1      21.222   9.267  33.132  0.00  0.00    -0.267 OA
ATOM      5  N2  UNL     1      23.277   8.453  33.898  0.00  0.00    -0.306 N 
ATOM      6  H7  UNL     1      23.824   8.104  34.720  0.00  0.00    +0.149 HD
BRANCH   3  12
ATOM      7  C1  UNL     1      18.809   9.468  37.843  0.00  0.00    +0.109 C 
ATOM      8  C2  UNL     1      19.965   8.963  37.050  0.00  0.00    +0.194 A 
ATOM      9  N1  UNL     1      20.878   8.097  37.540  0.00  0.00    -0.218 NA
ATOM     10  C3  UNL     1      21.723   7.930  36.505  0.00  0.00    +0.089 A 
ATOM     11  C4  UNL     1      22.925   7.038  36.560  0.00  0.00    +0.070 C 
ATOM     12  C5  UNL     1      21.294   8.696  35.433  0.00  0.00    +0.212 A 
ATOM     13  O3  UNL     1      20.208   9.322  35.807  0.00  0.00    -0.435 OA
ENDBRANCH   3  12
ENDBRANCH   1   5
BRANCH   1  14
ATOM     14  C9  UNL     1      24.051   7.029  32.047  0.00  0.00    +0.037 C 
ATOM     15  C10 UNL     1      24.133   5.900  33.067  0.00  0.00    +0.091 C 
ATOM     16  N3  UNL     1      22.926   5.238  32.544  0.00  0.00    -0.293 NA
ATOM     17  C17 UNL     1      22.780   6.336  31.572  0.00  0.00    +0.091 C 
BRANCH  16  18
ATOM     18  C11 UNL     1      21.839   5.205  33.540  0.00  0.00    +0.183 C 
BRANCH  18  19
ATOM     19  C12 UNL     1      21.141   3.884  33.484  0.00  0.00    +0.241 A 
ATOM     20  N4  UNL     1      21.401   2.934  32.568  0.00  0.00    -0.195 NA
ATOM     21  C13 UNL     1      20.563   1.952  32.965  0.00  0.00    +0.175 A 
ATOM     22  N5  UNL     1      19.834   2.294  34.046  0.00  0.00    -0.061 NA
ATOM     23  O2  UNL     1      20.228   3.494  34.341  0.00  0.00    -0.337 OA
BRANCH  21  24
ATOM     24  C14 UNL     1      20.438   0.645  32.252  0.00  0.00    +0.060 C 
ATOM     25  C15 UNL     1      19.107  -0.054  32.499  0.00  0.00    +0.012 C 
ATOM     26  C16 UNL     1      19.387   0.593  31.149  0.00  0.00    +0.012 C 
ENDBRANCH  21  24
ENDBRANCH  18  19
ENDBRANCH  16  18
ENDBRANCH   1  14
TORSDOF 6
ENDMDL
MODEL 5
REMARK VINA RESULT:    -5.840     16.716     17.635
REMARK INTER + INTRA:          -8.189
REMARK INTER:                  -7.309
REMARK INTRA:                  -0.879
REMARK UNBOUND:                -0.300
REMARK  Name = /home/qwerty/github/datacon2025hack/step_04_hit_selection/docking/ligands/lig_136.pdb
REMARK  9 active torsions:
REMARK  status: ('A' for Active; 'I' for Inactive)
REMARK    1  A    between atoms: C1_1  and  C2_2
REMARK    2  A    between atoms: C3_4  and  C4_5
REMARK    3  A    between atoms: C5_6  and  C6_7
REMARK    4  A    between atoms: N2_9  and  C7_10
REMARK    5  A    between atoms: C7_10  and  C8_11
REMARK    6  A    between atoms: C7_10  and  C9_12
REMARK    7  A    between atoms: N3_14  and  C11_15
REMARK    8  A    between atoms: C11_15  and  C12_16
REMARK    9  A    between atoms: C13_18  and  C14_19
REMARK                            x       y       z     vdW  Elec       q    Type
REMARK                         _______ _______ _______ _____ _____    ______ ____
ROOT
ATOM      1  C7  UNL     1       8.890   2.422  24.376  0.00  0.00    +0.076 C 
ATOM      2  C8  UNL     1       9.333   2.003  25.791  0.00  0.00    +0.028 C 
ENDROOT
BRANCH   1   5
ATOM      3  C6  UNL     1      10.479   1.887  22.464  0.00  0.00    +0.281 C 
ATOM      4  O1  UNL     1       9.850   0.824  22.207  0.00  0.00    -0.267 OA
ATOM      5  N2  UNL     1      10.075   2.716  23.564  0.00  0.00    -0.306 N 
ATOM      6  H7  UNL     1      10.623   3.584  23.762  0.00  0.00    +0.149 HD
BRANCH   3  12
ATOM      7  C1  UNL     1      13.212   4.360  19.233  0.00  0.00    +0.109 C 
ATOM      8  C2  UNL     1      12.816   3.341  20.245  0.00  0.00    +0.194 A 
ATOM      9  N1  UNL     1      13.640   2.360  20.670  0.00  0.00    -0.218 NA
ATOM     10  C3  UNL     1      12.880   1.686  21.554  0.00  0.00    +0.089 A 
ATOM     11  C4  UNL     1      13.364   0.487  22.310  0.00  0.00    +0.070 C 
ATOM     12  C5  UNL     1      11.631   2.280  21.632  0.00  0.00    +0.212 A 
ATOM     13  O3  UNL     1      11.628   3.297  20.808  0.00  0.00    -0.435 OA
ENDBRANCH   3  12
ENDBRANCH   1   5
BRANCH   1  14
ATOM     14  C9  UNL     1       7.904   3.620  24.289  0.00  0.00    +0.037 C 
ATOM     15  C10 UNL     1       8.477   5.026  24.422  0.00  0.00    +0.091 C 
ATOM     16  N3  UNL     1       7.993   5.432  23.091  0.00  0.00    -0.293 NA
ATOM     17  C17 UNL     1       7.467   4.069  22.899  0.00  0.00    +0.091 C 
BRANCH  16  18
ATOM     18  C11 UNL     1       9.103   5.753  22.175  0.00  0.00    +0.183 C 
BRANCH  18  19
ATOM     19  C12 UNL     1       9.064   7.205  21.823  0.00  0.00    +0.241 A 
ATOM     20  N4  UNL     1      10.143   7.919  21.455  0.00  0.00    -0.195 NA
ATOM     21  C13 UNL     1       9.588   9.125  21.211  0.00  0.00    +0.175 A 
ATOM     22  N5  UNL     1       8.258   9.141  21.430  0.00  0.00    -0.061 NA
ATOM     23  O2  UNL     1       7.972   7.931  21.800  0.00  0.00    -0.337 OA
BRANCH  21  24
ATOM     24  C14 UNL     1      10.378  10.319  20.780  0.00  0.00    +0.060 C 
ATOM     25  C15 UNL     1      11.806   9.982  20.369  0.00  0.00    +0.012 C 
ATOM     26  C16 UNL     1      10.776  10.350  19.309  0.00  0.00    +0.012 C 
ENDBRANCH  21  24
ENDBRANCH  18  19
ENDBRANCH  16  18
ENDBRANCH   1  14
TORSDOF 6
ENDMDL
MODEL 6
REMARK VINA RESULT:    -5.728      4.324     10.202
REMARK INTER + INTRA:          -8.037
REMARK INTER:                  -7.761
REMARK INTRA:                  -0.276
REMARK UNBOUND:                -0.300
REMARK  Name = /home/qwerty/github/datacon2025hack/step_04_hit_selection/docking/ligands/lig_136.pdb
REMARK  9 active torsions:
REMARK  status: ('A' for Active; 'I' for Inactive)
REMARK    1  A    between atoms: C1_1  and  C2_2
REMARK    2  A    between atoms: C3_4  and  C4_5
REMARK    3  A    between atoms: C5_6  and  C6_7
REMARK    4  A    between atoms: N2_9  and  C7_10
REMARK    5  A    between atoms: C7_10  and  C8_11
REMARK    6  A    between atoms: C7_10  and  C9_12
REMARK    7  A    between atoms: N3_14  and  C11_15
REMARK    8  A    between atoms: C11_15  and  C12_16
REMARK    9  A    between atoms: C13_18  and  C14_19
REMARK                            x       y       z     vdW  Elec       q    Type
REMARK                         _______ _______ _______ _____ _____    ______ ____
ROOT
ATOM      1  C7  UNL     1      22.655   7.187  34.973  0.00  0.00    +0.076 C 
ATOM      2  C8  UNL     1      23.592   6.242  35.749  0.00  0.00    +0.028 C 
ENDROOT
BRANCH   1   5
ATOM      3  C6  UNL     1      20.884   8.576  36.158  0.00  0.00    +0.281 C 
ATOM      4  O1  UNL     1      21.573   9.622  36.012  0.00  0.00    -0.267 OA
ATOM      5  N2  UNL     1      21.385   7.312  35.695  0.00  0.00    -0.306 N 
ATOM      6  H7  UNL     1      20.798   6.458  35.842  0.00  0.00    +0.149 HD
BRANCH   3  12
ATOM      7  C1  UNL     1      16.672  10.414  37.862  0.00  0.00    +0.109 C 
ATOM      8  C2  UNL     1      17.744   9.431  37.539  0.00  0.00    +0.194 A 
ATOM      9  N1  UNL     1      17.674   8.123  37.869  0.00  0.00    -0.218 NA
ATOM     10  C3  UNL     1      18.835   7.630  37.399  0.00  0.00    +0.089 A 
ATOM     11  C4  UNL     1      19.228   6.190  37.525  0.00  0.00    +0.070 C 
ATOM     12  C5  UNL     1      19.560   8.649  36.804  0.00  0.00    +0.212 A 
ATOM     13  O3  UNL     1      18.857   9.747  36.911  0.00  0.00    -0.435 OA
ENDBRANCH   3  12
ENDBRANCH   1   5
BRANCH   1  14
ATOM     14  C9  UNL     1      22.363   6.809  33.494  0.00  0.00    +0.037 C 
ATOM     15  C10 UNL     1      23.155   5.660  32.882  0.00  0.00    +0.091 C 
ATOM     16  N3  UNL     1      21.941   4.877  32.592  0.00  0.00    -0.293 NA
ATOM     17  C17 UNL     1      21.140   5.941  33.221  0.00  0.00    +0.091 C 
BRANCH  16  18
ATOM     18  C11 UNL     1      21.908   3.611  33.348  0.00  0.00    +0.183 C 
BRANCH  18  19
ATOM     19  C12 UNL     1      21.503   2.492  32.444  0.00  0.00    +0.241 A 
ATOM     20  N4  UNL     1      21.839   2.417  31.144  0.00  0.00    -0.195 NA
ATOM     21  C13 UNL     1      21.284   1.235  30.798  0.00  0.00    +0.175 A 
ATOM     22  N5  UNL     1      20.642   0.641  31.824  0.00  0.00    -0.061 NA
ATOM     23  O2  UNL     1      20.809   1.447  32.827  0.00  0.00    -0.337 OA
BRANCH  21  24
ATOM     24  C14 UNL     1      21.348   0.674  29.415  0.00  0.00    +0.060 C 
ATOM     25  C15 UNL     1      22.519   1.207  28.599  0.00  0.00    +0.012 C 
ATOM     26  C16 UNL     1      22.545  -0.223  29.122  0.00  0.00    +0.012 C 
ENDBRANCH  21  24
ENDBRANCH  18  19
ENDBRANCH  16  18
ENDBRANCH   1  14
TORSDOF 6
ENDMDL
MODEL 7
REMARK VINA RESULT:    -5.694      3.041      8.731
REMARK INTER + INTRA:          -7.991
REMARK INTER:                  -7.010
REMARK INTRA:                  -0.980
REMARK UNBOUND:                -0.300
REMARK  Name = /home/qwerty/github/datacon2025hack/step_04_hit_selection/docking/ligands/lig_136.pdb
REMARK  9 active torsions:
REMARK  status: ('A' for Active; 'I' for Inactive)
REMARK    1  A    between atoms: C1_1  and  C2_2
REMARK    2  A    between atoms: C3_4  and  C4_5
REMARK    3  A    between atoms: C5_6  and  C6_7
REMARK    4  A    between atoms: N2_9  and  C7_10
REMARK    5  A    between atoms: C7_10  and  C8_11
REMARK    6  A    between atoms: C7_10  and  C9_12
REMARK    7  A    between atoms: N3_14  and  C11_15
REMARK    8  A    between atoms: C11_15  and  C12_16
REMARK    9  A    between atoms: C13_18  and  C14_19
REMARK                            x       y       z     vdW  Elec       q    Type
REMARK                         _______ _______ _______ _____ _____    ______ ____
ROOT
ATOM      1  C7  UNL     1      17.469   7.248  37.695  0.00  0.00    +0.076 C 
ATOM      2  C8  UNL     1      16.025   6.717  37.611  0.00  0.00    +0.028 C 
ENDROOT
BRANCH   1   5
ATOM      3  C6  UNL     1      17.953   9.728  37.412  0.00  0.00    +0.281 C 
ATOM      4  O1  UNL     1      18.107   9.865  38.657  0.00  0.00    -0.267 OA
ATOM      5  N2  UNL     1      17.593   8.450  36.866  0.00  0.00    -0.306 N 
ATOM      6  H7  UNL     1      17.458   8.370  35.831  0.00  0.00    +0.149 HD
BRANCH   3  12
ATOM      7  C1  UNL     1      19.924  12.662  34.016  0.00  0.00    +0.109 C 
ATOM      8  C2  UNL     1      18.984  12.151  35.053  0.00  0.00    +0.194 A 
ATOM      9  N1  UNL     1      17.883  12.825  35.452  0.00  0.00    -0.218 NA
ATOM     10  C3  UNL     1      17.352  12.012  36.385  0.00  0.00    +0.089 A 
ATOM     11  C4  UNL     1      16.094  12.331  37.133  0.00  0.00    +0.070 C 
ATOM     12  C5  UNL     1      18.144  10.884  36.515  0.00  0.00    +0.212 A 
ATOM     13  O3  UNL     1      19.143  11.005  35.679  0.00  0.00    -0.435 OA
ENDBRANCH   3  12
ENDBRANCH   1   5
BRANCH   1  14
ATOM     14  C9  UNL     1      18.595   6.248  37.311  0.00  0.00    +0.037 C 
ATOM     15  C10 UNL     1      19.016   6.175  35.848  0.00  0.00    +0.091 C 
ATOM     16  N3  UNL     1      20.408   6.547  36.151  0.00  0.00    -0.293 NA
ATOM     17  C17 UNL     1      20.034   6.679  37.569  0.00  0.00    +0.091 C 
BRANCH  16  18
ATOM     18  C11 UNL     1      20.781   7.834  35.534  0.00  0.00    +0.183 C 
BRANCH  18  19
ATOM     19  C12 UNL     1      22.092   7.696  34.830  0.00  0.00    +0.241 A 
ATOM     20  N4  UNL     1      22.416   8.360  33.706  0.00  0.00    -0.195 NA
ATOM     21  C13 UNL     1      23.681   7.932  33.504  0.00  0.00    +0.175 A 
ATOM     22  N5  UNL     1      24.090   7.055  34.442  0.00  0.00    -0.061 NA
ATOM     23  O2  UNL     1      23.080   6.941  35.248  0.00  0.00    -0.337 OA
BRANCH  21  24
ATOM     24  C14 UNL     1      24.516   8.363  32.342  0.00  0.00    +0.060 C 
ATOM     25  C15 UNL     1      24.050   9.672  31.715  0.00  0.00    +0.012 C 
ATOM     26  C16 UNL     1      25.325   9.639  32.549  0.00  0.00    +0.012 C 
ENDBRANCH  21  24
ENDBRANCH  18  19
ENDBRANCH  16  18
ENDBRANCH   1  14
TORSDOF 6
ENDMDL
MODEL 8
REMARK VINA RESULT:    -5.676     16.244     19.217
REMARK INTER + INTRA:          -7.967
REMARK INTER:                  -7.444
REMARK INTRA:                  -0.523
REMARK UNBOUND:                -0.300
REMARK  Name = /home/qwerty/github/datacon2025hack/step_04_hit_selection/docking/ligands/lig_136.pdb
REMARK  9 active torsions:
REMARK  status: ('A' for Active; 'I' for Inactive)
REMARK    1  A    between atoms: C1_1  and  C2_2
REMARK    2  A    between atoms: C3_4  and  C4_5
REMARK    3  A    between atoms: C5_6  and  C6_7
REMARK    4  A    between atoms: N2_9  and  C7_10
REMARK    5  A    between atoms: C7_10  and  C8_11
REMARK    6  A    between atoms: C7_10  and  C9_12
REMARK    7  A    between atoms: N3_14  and  C11_15
REMARK    8  A    between atoms: C11_15  and  C12_16
REMARK    9  A    between atoms: C13_18  and  C14_19
REMARK                            x       y       z     vdW  Elec       q    Type
REMARK                         _______ _______ _______ _____ _____    ______ ____
ROOT
ATOM      1  C7  UNL     1      12.142   4.297  20.339  0.00  0.00    +0.076 C 
ATOM      2  C8  UNL     1      13.364   4.502  19.424  0.00  0.00    +0.028 C 
ENDROOT
BRANCH   1   5
ATOM      3  C6  UNL     1      10.139   5.809  20.748  0.00  0.00    +0.281 C 
ATOM      4  O1  UNL     1       9.343   4.872  20.465  0.00  0.00    -0.267 OA
ATOM      5  N2  UNL     1      11.557   5.600  20.667  0.00  0.00    -0.306 N 
ATOM      6  H7  UNL     1      12.193   6.399  20.894  0.00  0.00    +0.149 HD
BRANCH   3  12
ATOM      7  C1  UNL     1       9.034  10.583  20.650  0.00  0.00    +0.109 C 
ATOM      8  C2  UNL     1       9.130   9.176  21.129  0.00  0.00    +0.194 A 
ATOM      9  N1  UNL     1       8.642   8.763  22.319  0.00  0.00    -0.218 NA
ATOM     10  C3  UNL     1       8.952   7.453  22.336  0.00  0.00    +0.089 A 
ATOM     11  C4  UNL     1       8.609   6.542  23.473  0.00  0.00    +0.070 C 
ATOM     12  C5  UNL     1       9.612   7.122  21.164  0.00  0.00    +0.212 A 
ATOM     13  O3  UNL     1       9.706   8.211  20.445  0.00  0.00    -0.435 OA
ENDBRANCH   3  12
ENDBRANCH   1   5
BRANCH   1  14
ATOM     14  C9  UNL     1      12.390   3.506  21.654  0.00  0.00    +0.037 C 
ATOM     15  C10 UNL     1      12.298   1.986  21.601  0.00  0.00    +0.091 C 
ATOM     16  N3  UNL     1      13.689   1.810  22.054  0.00  0.00    -0.293 NA
ATOM     17  C17 UNL     1      13.838   3.275  22.071  0.00  0.00    +0.091 C 
BRANCH  16  18
ATOM     18  C11 UNL     1      14.524   1.160  21.027  0.00  0.00    +0.183 C 
BRANCH  18  19
ATOM     19  C12 UNL     1      15.358   0.090  21.656  0.00  0.00    +0.241 A 
ATOM     20  N4  UNL     1      15.032  -0.544  22.796  0.00  0.00    -0.195 NA
ATOM     21  C13 UNL     1      16.055  -1.419  22.910  0.00  0.00    +0.175 A 
ATOM     22  N5  UNL     1      16.948  -1.309  21.907  0.00  0.00    -0.061 NA
ATOM     23  O2  UNL     1      16.476  -0.370  21.147  0.00  0.00    -0.337 OA
BRANCH  21  24
ATOM     24  C14 UNL     1      16.192  -2.375  24.050  0.00  0.00    +0.060 C 
ATOM     25  C15 UNL     1      17.598  -2.944  24.197  0.00  0.00    +0.012 C 
ATOM     26  C16 UNL     1      17.086  -1.913  25.195  0.00  0.00    +0.012 C 
ENDBRANCH  21  24
ENDBRANCH  18  19
ENDBRANCH  16  18
ENDBRANCH   1  14
TORSDOF 6
ENDMDL
MODEL 9
REMARK VINA RESULT:    -5.629     15.730     16.939
REMARK INTER + INTRA:          -7.903
REMARK INTER:                  -7.171
REMARK INTRA:                  -0.731
REMARK UNBOUND:                -0.300
REMARK  Name = /home/qwerty/github/datacon2025hack/step_04_hit_selection/docking/ligands/lig_136.pdb
REMARK  9 active torsions:
REMARK  status: ('A' for Active; 'I' for Inactive)
REMARK    1  A    between atoms: C1_1  and  C2_2
REMARK    2  A    between atoms: C3_4  and  C4_5
REMARK    3  A    between atoms: C5_6  and  C6_7
REMARK    4  A    between atoms: N2_9  and  C7_10
REMARK    5  A    between atoms: C7_10  and  C8_11
REMARK    6  A    between atoms: C7_10  and  C9_12
REMARK    7  A    between atoms: N3_14  and  C11_15
REMARK    8  A    between atoms: C11_15  and  C12_16
REMARK    9  A    between atoms: C13_18  and  C14_19
REMARK                            x       y       z     vdW  Elec       q    Type
REMARK                         _______ _______ _______ _____ _____    ______ ____
ROOT
ATOM      1  C7  UNL     1      16.277   0.340  22.004  0.00  0.00    +0.076 C 
ATOM      2  C8  UNL     1      16.462  -1.027  21.317  0.00  0.00    +0.028 C 
ENDROOT
BRANCH   1   5
ATOM      3  C6  UNL     1      15.680  -0.198  24.417  0.00  0.00    +0.281 C 
ATOM      4  O1  UNL     1      16.873  -0.525  24.665  0.00  0.00    -0.267 OA
ATOM      5  N2  UNL     1      15.303   0.207  23.092  0.00  0.00    -0.306 N 
ATOM      6  H7  UNL     1      14.303   0.459  22.912  0.00  0.00    +0.149 HD
BRANCH   3  12
ATOM      7  C1  UNL     1      12.561   1.334  27.875  0.00  0.00    +0.109 C 
ATOM      8  C2  UNL     1      13.322   0.418  26.979  0.00  0.00    +0.194 A 
ATOM      9  N1  UNL     1      13.190  -0.925  27.008  0.00  0.00    -0.218 NA
ATOM     10  C3  UNL     1      14.051  -1.335  26.057  0.00  0.00    +0.089 A 
ATOM     11  C4  UNL     1      14.266  -2.776  25.708  0.00  0.00    +0.070 C 
ATOM     12  C5  UNL     1      14.668  -0.233  25.490  0.00  0.00    +0.212 A 
ATOM     13  O3  UNL     1      14.195   0.832  26.085  0.00  0.00    -0.435 OA
ENDBRANCH   3  12
ENDBRANCH   1   5
BRANCH   1  14
ATOM     14  C9  UNL     1      15.855   1.522  21.087  0.00  0.00    +0.037 C 
ATOM     15  C10 UNL     1      14.650   1.324  20.176  0.00  0.00    +0.091 C 
ATOM     16  N3  UNL     1      13.911   2.445  20.783  0.00  0.00    -0.293 NA
ATOM     17  C17 UNL     1      15.033   2.640  21.717  0.00  0.00    +0.091 C 
BRANCH  16  18
ATOM     18  C11 UNL     1      12.678   1.993  21.454  0.00  0.00    +0.183 C 
BRANCH  18  19
ATOM     19  C12 UNL     1      11.580   2.978  21.210  0.00  0.00    +0.241 A 
ATOM     20  N4  UNL     1      10.332   2.848  21.695  0.00  0.00    -0.195 NA
ATOM     21  C13 UNL     1       9.756   3.982  21.241  0.00  0.00    +0.175 A 
ATOM     22  N5  UNL     1      10.602   4.743  20.518  0.00  0.00    -0.061 NA
ATOM     23  O2  UNL     1      11.723   4.090  20.529  0.00  0.00    -0.337 OA
BRANCH  21  24
ATOM     24  C14 UNL     1       8.324   4.329  21.489  0.00  0.00    +0.060 C 
ATOM     25  C15 UNL     1       7.849   3.971  22.892  0.00  0.00    +0.012 C 
ATOM     26  C16 UNL     1       8.080   5.429  22.517  0.00  0.00    +0.012 C 
ENDBRANCH  21  24
ENDBRANCH  18  19
ENDBRANCH  16  18
ENDBRANCH   1  14
TORSDOF 6
ENDMDL
