MODEL 1
REMARK VINA RESULT:    -6.770      0.000      0.000
REMARK INTER + INTRA:          -9.071
REMARK INTER:                  -8.353
REMARK INTRA:                  -0.718
REMARK UNBOUND:                -0.718
REMARK  Name = /home/qwerty/github/datacon2025hack/step_04_hit_selection/docking/ligands/lig_221.pdb
REMARK  5 active torsions:
REMARK  status: ('A' for Active; 'I' for Inactive)
REMARK    1  A    between atoms: C1_1  and  C2_2
REMARK    2  A    between atoms: C6_6  and  C7_7
REMARK    3  A    between atoms: C8_9  and  C9_10
REMARK    4  A    between atoms: C9_10  and  C10_11
REMARK    5  A    between atoms: N3_16  and  C13_17
REMARK                            x       y       z     vdW  Elec       q    Type
REMARK                         _______ _______ _______ _____ _____    ______ ____
ROOT
ATOM      1  C10 UNL     1       9.376  11.182  29.954  0.00  0.00    +0.221 C 
ATOM      2  O1  UNL     1       9.489  10.286  30.834  0.00  0.00    -0.275 OA
ATOM      3  N2  UNL     1      10.494  12.047  29.671  0.00  0.00    -0.298 N 
ATOM      4  C11 UNL     1      11.857  11.578  29.955  0.00  0.00    +0.126 C 
ATOM      5  C12 UNL     1      12.844  12.147  28.934  0.00  0.00    +0.125 C 
ATOM      6  N3  UNL     1      12.635  13.590  28.777  0.00  0.00    -0.312 N 
ATOM      7  C18 UNL     1      11.272  14.046  28.472  0.00  0.00    +0.125 C 
ATOM      8  C19 UNL     1      10.294  13.494  29.508  0.00  0.00    +0.126 C 
ENDROOT
BRANCH   6   9
ATOM      9  C13 UNL     1      13.763  14.455  28.549  0.00  0.00    +0.121 A 
ATOM     10  C14 UNL     1      14.536  14.927  29.621  0.00  0.00    +0.045 A 
ATOM     11  C15 UNL     1      15.637  15.746  29.364  0.00  0.00    +0.025 A 
ATOM     12  C16 UNL     1      15.963  16.084  28.049  0.00  0.00    +0.059 A 
ATOM     13 CL1  UNL     1      17.349  17.103  27.713  0.00  0.00    -0.082 Cl
ATOM     14  C17 UNL     1      15.177  15.593  27.006  0.00  0.00    +0.132 A 
ATOM     15  N4  UNL     1      14.109  14.795  27.276  0.00  0.00    -0.239 NA
ENDBRANCH   6   9
BRANCH   1  16
ATOM     16  C9  UNL     1       8.061  11.361  29.245  0.00  0.00    +0.151 C 
BRANCH  16  19
ATOM     17  C7  UNL     1       8.141   9.932  25.862  0.00  0.00    +0.109 A 
ATOM     18  N1  UNL     1       8.368  10.869  26.813  0.00  0.00    -0.243 NA
ATOM     19  C8  UNL     1       7.960  10.462  28.048  0.00  0.00    +0.058 A 
ATOM     20  C20 UNL     1       7.386   9.193  28.094  0.00  0.00    +0.071 A 
ATOM     21  S1  UNL     1       7.412   8.567  26.534  0.00  0.00    -0.075 S 
BRANCH  17  27
ATOM     22  C1  UNL     1      11.563  10.171  22.180  0.00  0.00    +0.044 C 
ATOM     23  C2  UNL     1      10.133  10.217  22.633  0.00  0.00    -0.050 A 
ATOM     24  C3  UNL     1       9.108  10.488  21.716  0.00  0.00    +0.003 A 
ATOM     25  C4  UNL     1       7.781  10.559  22.144  0.00  0.00    +0.001 A 
ATOM     26  C5  UNL     1       7.468  10.374  23.494  0.00  0.00    +0.010 A 
ATOM     27  C6  UNL     1       8.483  10.121  24.433  0.00  0.00    +0.007 A 
ATOM     28  C21 UNL     1       9.819  10.051  23.993  0.00  0.00    +0.014 A 
ENDBRANCH  17  27
ENDBRANCH  16  19
ENDBRANCH   1  16
TORSDOF 4
ENDMDL
MODEL 2
REMARK VINA RESULT:    -6.732      9.484     12.444
REMARK INTER + INTRA:          -9.024
REMARK INTER:                  -8.564
REMARK INTRA:                  -0.461
REMARK UNBOUND:                -0.718
REMARK  Name = /home/qwerty/github/datacon2025hack/step_04_hit_selection/docking/ligands/lig_221.pdb
REMARK  5 active torsions:
REMARK  status: ('A' for Active; 'I' for Inactive)
REMARK    1  A    between atoms: C1_1  and  C2_2
REMARK    2  A    between atoms: C6_6  and  C7_7
REMARK    3  A    between atoms: C8_9  and  C9_10
REMARK    4  A    between atoms: C9_10  and  C10_11
REMARK    5  A    between atoms: N3_16  and  C13_17
REMARK                            x       y       z     vdW  Elec       q    Type
REMARK                         _______ _______ _______ _____ _____    ______ ____
ROOT
ATOM      1  C10 UNL     1      12.803   3.476  21.130  0.00  0.00    +0.221 C 
ATOM      2  O1  UNL     1      12.222   2.364  20.989  0.00  0.00    -0.275 OA
ATOM      3  N2  UNL     1      12.020   4.685  21.194  0.00  0.00    -0.298 N 
ATOM      4  C11 UNL     1      10.624   4.615  21.642  0.00  0.00    +0.126 C 
ATOM      5  C12 UNL     1      10.241   5.887  22.403  0.00  0.00    +0.125 C 
ATOM      6  N3  UNL     1      10.660   7.073  21.650  0.00  0.00    -0.312 N 
ATOM      7  C18 UNL     1      12.064   7.141  21.224  0.00  0.00    +0.125 C 
ATOM      8  C19 UNL     1      12.434   5.880  20.445  0.00  0.00    +0.126 C 
ENDROOT
BRANCH   6   9
ATOM      9  C13 UNL     1       9.845   8.259  21.674  0.00  0.00    +0.121 A 
ATOM     10  C14 UNL     1      10.049   9.292  20.746  0.00  0.00    +0.045 A 
ATOM     11  C15 UNL     1       9.226  10.420  20.782  0.00  0.00    +0.025 A 
ATOM     12  C16 UNL     1       8.209  10.510  21.735  0.00  0.00    +0.059 A 
ATOM     13 CL1  UNL     1       7.162  11.915  21.784  0.00  0.00    -0.082 Cl
ATOM     14  C17 UNL     1       8.030   9.463  22.640  0.00  0.00    +0.132 A 
ATOM     15  N4  UNL     1       8.840   8.372  22.588  0.00  0.00    -0.239 NA
ENDBRANCH   6   9
BRANCH   1  16
ATOM     16  C9  UNL     1      14.306   3.522  21.186  0.00  0.00    +0.151 C 
BRANCH  16  19
ATOM     17  C7  UNL     1      15.600   0.156  21.880  0.00  0.00    +0.109 A 
ATOM     18  N1  UNL     1      14.986   1.327  22.170  0.00  0.00    -0.243 NA
ATOM     19  C8  UNL     1      14.898   2.147  21.086  0.00  0.00    +0.058 A 
ATOM     20  C20 UNL     1      15.458   1.643  19.914  0.00  0.00    +0.071 A 
ATOM     21  S1  UNL     1      16.064   0.114  20.259  0.00  0.00    -0.075 S 
BRANCH  17  27
ATOM     22  C1  UNL     1      14.047  -2.549  25.829  0.00  0.00    +0.044 C 
ATOM     23  C2  UNL     1      15.080  -2.248  24.783  0.00  0.00    -0.050 A 
ATOM     24  C3  UNL     1      16.297  -2.943  24.770  0.00  0.00    +0.003 A 
ATOM     25  C4  UNL     1      17.270  -2.640  23.813  0.00  0.00    +0.001 A 
ATOM     26  C5  UNL     1      17.039  -1.634  22.871  0.00  0.00    +0.010 A 
ATOM     27  C6  UNL     1      15.832  -0.912  22.879  0.00  0.00    +0.007 A 
ATOM     28  C21 UNL     1      14.857  -1.223  23.847  0.00  0.00    +0.014 A 
ENDBRANCH  17  27
ENDBRANCH  16  19
ENDBRANCH   1  16
TORSDOF 4
ENDMDL
MODEL 3
REMARK VINA RESULT:    -6.589     10.165     13.416
REMARK INTER + INTRA:          -8.847
REMARK INTER:                  -8.295
REMARK INTRA:                  -0.552
REMARK UNBOUND:                -0.718
REMARK  Name = /home/qwerty/github/datacon2025hack/step_04_hit_selection/docking/ligands/lig_221.pdb
REMARK  5 active torsions:
REMARK  status: ('A' for Active; 'I' for Inactive)
REMARK    1  A    between atoms: C1_1  and  C2_2
REMARK    2  A    between atoms: C6_6  and  C7_7
REMARK    3  A    between atoms: C8_9  and  C9_10
REMARK    4  A    between atoms: C9_10  and  C10_11
REMARK    5  A    between atoms: N3_16  and  C13_17
REMARK                            x       y       z     vdW  Elec       q    Type
REMARK                         _______ _______ _______ _____ _____    ______ ____
ROOT
ATOM      1  C10 UNL     1      18.911  10.837  36.697  0.00  0.00    +0.221 C 
ATOM      2  O1  UNL     1      19.868  11.579  36.342  0.00  0.00    -0.275 OA
ATOM      3  N2  UNL     1      17.557  11.318  36.586  0.00  0.00    -0.298 N 
ATOM      4  C11 UNL     1      17.244  12.364  35.603  0.00  0.00    +0.126 C 
ATOM      5  C12 UNL     1      15.829  12.173  35.051  0.00  0.00    +0.125 C 
ATOM      6  N3  UNL     1      14.881  11.959  36.149  0.00  0.00    -0.312 N 
ATOM      7  C18 UNL     1      15.194  10.897  37.113  0.00  0.00    +0.125 C 
ATOM      8  C19 UNL     1      16.599  11.105  37.680  0.00  0.00    +0.126 C 
ENDROOT
BRANCH   6   9
ATOM      9  C13 UNL     1      13.547  12.491  36.054  0.00  0.00    +0.121 A 
ATOM     10  C14 UNL     1      12.475  11.868  36.712  0.00  0.00    +0.045 A 
ATOM     11  C15 UNL     1      11.197  12.422  36.618  0.00  0.00    +0.025 A 
ATOM     12  C16 UNL     1      10.995  13.588  35.877  0.00  0.00    +0.059 A 
ATOM     13 CL1  UNL     1       9.397  14.300  35.760  0.00  0.00    -0.082 Cl
ATOM     14  C17 UNL     1      12.083  14.185  35.239  0.00  0.00    +0.132 A 
ATOM     15  N4  UNL     1      13.321  13.632  35.343  0.00  0.00    -0.239 NA
ENDBRANCH   6   9
BRANCH   1  16
ATOM     16  C9  UNL     1      19.204   9.477  37.271  0.00  0.00    +0.151 C 
BRANCH  16  19
ATOM     17  C7  UNL     1      21.255   7.667  34.819  0.00  0.00    +0.109 A 
ATOM     18  N1  UNL     1      21.015   8.550  35.817  0.00  0.00    -0.243 NA
ATOM     19  C8  UNL     1      19.712   8.538  36.216  0.00  0.00    +0.058 A 
ATOM     20  C20 UNL     1      18.889   7.651  35.526  0.00  0.00    +0.071 A 
ATOM     21  S1  UNL     1      19.841   6.851  34.395  0.00  0.00    -0.075 S 
BRANCH  17  27
ATOM     22  C1  UNL     1      25.186   9.511  32.276  0.00  0.00    +0.044 C 
ATOM     23  C2  UNL     1      24.511   8.371  32.982  0.00  0.00    -0.050 A 
ATOM     24  C3  UNL     1      25.112   7.106  33.018  0.00  0.00    +0.003 A 
ATOM     25  C4  UNL     1      24.468   6.039  33.650  0.00  0.00    +0.001 A 
ATOM     26  C5  UNL     1      23.214   6.225  34.239  0.00  0.00    +0.010 A 
ATOM     27  C6  UNL     1      22.586   7.482  34.197  0.00  0.00    +0.007 A 
ATOM     28  C21 UNL     1      23.242   8.552  33.557  0.00  0.00    +0.014 A 
ENDBRANCH  17  27
ENDBRANCH  16  19
ENDBRANCH   1  16
TORSDOF 4
ENDMDL
MODEL 4
REMARK VINA RESULT:    -6.538      5.128      9.802
REMARK INTER + INTRA:          -8.784
REMARK INTER:                  -8.071
REMARK INTRA:                  -0.714
REMARK UNBOUND:                -0.718
REMARK  Name = /home/qwerty/github/datacon2025hack/step_04_hit_selection/docking/ligands/lig_221.pdb
REMARK  5 active torsions:
REMARK  status: ('A' for Active; 'I' for Inactive)
REMARK    1  A    between atoms: C1_1  and  C2_2
REMARK    2  A    between atoms: C6_6  and  C7_7
REMARK    3  A    between atoms: C8_9  and  C9_10
REMARK    4  A    between atoms: C9_10  and  C10_11
REMARK    5  A    between atoms: N3_16  and  C13_17
REMARK                            x       y       z     vdW  Elec       q    Type
REMARK                         _______ _______ _______ _____ _____    ______ ____
ROOT
ATOM      1  C10 UNL     1      10.478  12.178  27.526  0.00  0.00    +0.221 C 
ATOM      2  O1  UNL     1      11.430  12.137  26.699  0.00  0.00    -0.275 OA
ATOM      3  N2  UNL     1       9.719  10.984  27.799  0.00  0.00    -0.298 N 
ATOM      4  C11 UNL     1      10.342   9.671  27.585  0.00  0.00    +0.126 C 
ATOM      5  C12 UNL     1       9.821   8.658  28.607  0.00  0.00    +0.125 C 
ATOM      6  N3  UNL     1       8.357   8.718  28.679  0.00  0.00    -0.312 N 
ATOM      7  C18 UNL     1       7.747  10.033  28.914  0.00  0.00    +0.125 C 
ATOM      8  C19 UNL     1       8.252  11.035  27.877  0.00  0.00    +0.126 C 
ENDROOT
BRANCH   6   9
ATOM      9  C13 UNL     1       7.603   7.511  28.897  0.00  0.00    +0.121 A 
ATOM     10  C14 UNL     1       7.355   6.617  27.845  0.00  0.00    +0.045 A 
ATOM     11  C15 UNL     1       6.639   5.444  28.094  0.00  0.00    +0.025 A 
ATOM     12  C16 UNL     1       6.180   5.170  29.384  0.00  0.00    +0.059 A 
ATOM     13 CL1  UNL     1       5.289   3.696  29.713  0.00  0.00    -0.082 Cl
ATOM     14  C17 UNL     1       6.447   6.078  30.409  0.00  0.00    +0.132 A 
ATOM     15  N4  UNL     1       7.148   7.214  30.147  0.00  0.00    -0.239 NA
ENDBRANCH   6   9
BRANCH   1  16
ATOM     16  C9  UNL     1      10.124  13.487  28.180  0.00  0.00    +0.151 C 
BRANCH  16  19
ATOM     17  C7  UNL     1      11.452  13.655  31.600  0.00  0.00    +0.109 A 
ATOM     18  N1  UNL     1      10.586  13.283  30.629  0.00  0.00    -0.243 NA
ATOM     19  C8  UNL     1      10.964  13.731  29.399  0.00  0.00    +0.058 A 
ATOM     20  C20 UNL     1      12.136  14.484  29.377  0.00  0.00    +0.071 A 
ATOM     21  S1  UNL     1      12.715  14.567  30.954  0.00  0.00    -0.075 S 
BRANCH  17  27
ATOM     22  C1  UNL     1      11.498  10.254  35.309  0.00  0.00    +0.044 C 
ATOM     23  C2  UNL     1      11.315  11.668  34.842  0.00  0.00    -0.050 A 
ATOM     24  C3  UNL     1      10.926  12.666  35.746  0.00  0.00    +0.003 A 
ATOM     25  C4  UNL     1      10.727  13.977  35.304  0.00  0.00    +0.001 A 
ATOM     26  C5  UNL     1      10.902  14.297  33.955  0.00  0.00    +0.010 A 
ATOM     27  C6  UNL     1      11.274  13.306  33.029  0.00  0.00    +0.007 A 
ATOM     28  C21 UNL     1      11.472  11.988  33.483  0.00  0.00    +0.014 A 
ENDBRANCH  17  27
ENDBRANCH  16  19
ENDBRANCH   1  16
TORSDOF 4
ENDMDL
MODEL 5
REMARK VINA RESULT:    -6.511     12.488     14.096
REMARK INTER + INTRA:          -8.751
REMARK INTER:                  -8.078
REMARK INTRA:                  -0.673
REMARK UNBOUND:                -0.718
REMARK  Name = /home/qwerty/github/datacon2025hack/step_04_hit_selection/docking/ligands/lig_221.pdb
REMARK  5 active torsions:
REMARK  status: ('A' for Active; 'I' for Inactive)
REMARK    1  A    between atoms: C1_1  and  C2_2
REMARK    2  A    between atoms: C6_6  and  C7_7
REMARK    3  A    between atoms: C8_9  and  C9_10
REMARK    4  A    between atoms: C9_10  and  C10_11
REMARK    5  A    between atoms: N3_16  and  C13_17
REMARK                            x       y       z     vdW  Elec       q    Type
REMARK                         _______ _______ _______ _____ _____    ______ ____
ROOT
ATOM      1  C10 UNL     1      17.055   4.351  22.735  0.00  0.00    +0.221 C 
ATOM      2  O1  UNL     1      16.200   5.198  23.114  0.00  0.00    -0.275 OA
ATOM      3  N2  UNL     1      18.054   3.883  23.663  0.00  0.00    -0.298 N 
ATOM      4  C11 UNL     1      17.775   3.930  25.104  0.00  0.00    +0.126 C 
ATOM      5  C12 UNL     1      18.448   2.755  25.818  0.00  0.00    +0.125 C 
ATOM      6  N3  UNL     1      19.847   2.640  25.395  0.00  0.00    -0.312 N 
ATOM      7  C18 UNL     1      20.112   2.573  23.952  0.00  0.00    +0.125 C 
ATOM      8  C19 UNL     1      19.458   3.760  23.247  0.00  0.00    +0.126 C 
ENDROOT
BRANCH   6   9
ATOM      9  C13 UNL     1      20.848   2.224  26.342  0.00  0.00    +0.121 A 
ATOM     10  C14 UNL     1      21.981   3.015  26.586  0.00  0.00    +0.045 A 
ATOM     11  C15 UNL     1      22.923   2.594  27.528  0.00  0.00    +0.025 A 
ATOM     12  C16 UNL     1      22.729   1.397  28.220  0.00  0.00    +0.059 A 
ATOM     13 CL1  UNL     1      23.897   0.862  29.412  0.00  0.00    -0.082 Cl
ATOM     14  C17 UNL     1      21.588   0.636  27.957  0.00  0.00    +0.132 A 
ATOM     15  N4  UNL     1      20.682   1.064  27.037  0.00  0.00    -0.239 NA
ENDBRANCH   6   9
BRANCH   1  16
ATOM     16  C9  UNL     1      17.044   3.878  21.306  0.00  0.00    +0.151 C 
BRANCH  16  19
ATOM     17  C7  UNL     1      16.195   0.362  21.944  0.00  0.00    +0.109 A 
ATOM     18  N1  UNL     1      16.635   1.604  22.259  0.00  0.00    -0.243 NA
ATOM     19  C8  UNL     1      16.557   2.463  21.205  0.00  0.00    +0.058 A 
ATOM     20  C20 UNL     1      16.065   1.910  20.024  0.00  0.00    +0.071 A 
ATOM     21  S1  UNL     1      15.704   0.297  20.332  0.00  0.00    -0.075 S 
BRANCH  17  27
ATOM     22  C1  UNL     1      13.909  -2.233  25.600  0.00  0.00    +0.044 C 
ATOM     23  C2  UNL     1      15.068  -2.046  24.665  0.00  0.00    -0.050 A 
ATOM     24  C3  UNL     1      16.171  -2.910  24.725  0.00  0.00    +0.003 A 
ATOM     25  C4  UNL     1      17.262  -2.717  23.874  0.00  0.00    +0.001 A 
ATOM     26  C5  UNL     1      17.266  -1.653  22.967  0.00  0.00    +0.010 A 
ATOM     27  C6  UNL     1      16.178  -0.765  22.906  0.00  0.00    +0.007 A 
ATOM     28  C21 UNL     1      15.082  -0.966  23.767  0.00  0.00    +0.014 A 
ENDBRANCH  17  27
ENDBRANCH  16  19
ENDBRANCH   1  16
TORSDOF 4
ENDMDL
MODEL 6
REMARK VINA RESULT:    -6.496     12.205     15.060
REMARK INTER + INTRA:          -8.733
REMARK INTER:                  -8.118
REMARK INTRA:                  -0.616
REMARK UNBOUND:                -0.718
REMARK  Name = /home/qwerty/github/datacon2025hack/step_04_hit_selection/docking/ligands/lig_221.pdb
REMARK  5 active torsions:
REMARK  status: ('A' for Active; 'I' for Inactive)
REMARK    1  A    between atoms: C1_1  and  C2_2
REMARK    2  A    between atoms: C6_6  and  C7_7
REMARK    3  A    between atoms: C8_9  and  C9_10
REMARK    4  A    between atoms: C9_10  and  C10_11
REMARK    5  A    between atoms: N3_16  and  C13_17
REMARK                            x       y       z     vdW  Elec       q    Type
REMARK                         _______ _______ _______ _____ _____    ______ ____
ROOT
ATOM      1  C10 UNL     1      16.156  -1.558  24.052  0.00  0.00    +0.221 C 
ATOM      2  O1  UNL     1      16.240  -2.540  24.839  0.00  0.00    -0.275 OA
ATOM      3  N2  UNL     1      14.909  -0.846  23.931  0.00  0.00    -0.298 N 
ATOM      4  C11 UNL     1      13.955  -0.872  25.047  0.00  0.00    +0.126 C 
ATOM      5  C12 UNL     1      13.191   0.451  25.130  0.00  0.00    +0.125 C 
ATOM      6  N3  UNL     1      12.685   0.828  23.806  0.00  0.00    -0.312 N 
ATOM      7  C18 UNL     1      13.653   0.871  22.702  0.00  0.00    +0.125 C 
ATOM      8  C19 UNL     1      14.396  -0.461  22.609  0.00  0.00    +0.126 C 
ENDROOT
BRANCH   6   9
ATOM      9  C13 UNL     1      11.412   1.490  23.689  0.00  0.00    +0.121 A 
ATOM     10  C14 UNL     1      10.471   1.428  24.728  0.00  0.00    +0.045 A 
ATOM     11  C15 UNL     1       9.254   2.099  24.592  0.00  0.00    +0.025 A 
ATOM     12  C16 UNL     1       8.985   2.827  23.431  0.00  0.00    +0.059 A 
ATOM     13 CL1  UNL     1       7.466   3.683  23.253  0.00  0.00    -0.082 Cl
ATOM     14  C17 UNL     1       9.945   2.872  22.419  0.00  0.00    +0.132 A 
ATOM     15  N4  UNL     1      11.125   2.213  22.570  0.00  0.00    -0.239 NA
ENDBRANCH   6   9
BRANCH   1  16
ATOM     16  C9  UNL     1      17.350  -1.174  23.220  0.00  0.00    +0.151 C 
BRANCH  16  19
ATOM     17  C7  UNL     1      19.376   1.386  24.904  0.00  0.00    +0.109 A 
ATOM     18  N1  UNL     1      19.018   0.128  24.552  0.00  0.00    -0.243 NA
ATOM     19  C8  UNL     1      17.956   0.113  23.698  0.00  0.00    +0.058 A 
ATOM     20  C20 UNL     1      17.442   1.365  23.369  0.00  0.00    +0.071 A 
ATOM     21  S1  UNL     1      18.368   2.519  24.167  0.00  0.00    -0.075 S 
BRANCH  17  27
ATOM     22  C1  UNL     1      21.802   0.589  29.240  0.00  0.00    +0.044 C 
ATOM     23  C2  UNL     1      21.695   1.293  27.919  0.00  0.00    -0.050 A 
ATOM     24  C3  UNL     1      22.627   2.277  27.564  0.00  0.00    +0.003 A 
ATOM     25  C4  UNL     1      22.508   2.952  26.346  0.00  0.00    +0.001 A 
ATOM     26  C5  UNL     1      21.452   2.658  25.480  0.00  0.00    +0.010 A 
ATOM     27  C6  UNL     1      20.495   1.686  25.827  0.00  0.00    +0.007 A 
ATOM     28  C21 UNL     1      20.622   1.011  27.056  0.00  0.00    +0.014 A 
ENDBRANCH  17  27
ENDBRANCH  16  19
ENDBRANCH   1  16
TORSDOF 4
ENDMDL
MODEL 7
REMARK VINA RESULT:    -6.484     13.018     15.260
REMARK INTER + INTRA:          -8.719
REMARK INTER:                  -8.013
REMARK INTRA:                  -0.706
REMARK UNBOUND:                -0.718
REMARK  Name = /home/qwerty/github/datacon2025hack/step_04_hit_selection/docking/ligands/lig_221.pdb
REMARK  5 active torsions:
REMARK  status: ('A' for Active; 'I' for Inactive)
REMARK    1  A    between atoms: C1_1  and  C2_2
REMARK    2  A    between atoms: C6_6  and  C7_7
REMARK    3  A    between atoms: C8_9  and  C9_10
REMARK    4  A    between atoms: C9_10  and  C10_11
REMARK    5  A    between atoms: N3_16  and  C13_17
REMARK                            x       y       z     vdW  Elec       q    Type
REMARK                         _______ _______ _______ _____ _____    ______ ____
ROOT
ATOM      1  C10 UNL     1      21.350   2.694  28.569  0.00  0.00    +0.221 C 
ATOM      2  O1  UNL     1      22.115   1.741  28.882  0.00  0.00    -0.275 OA
ATOM      3  N2  UNL     1      21.463   3.300  27.266  0.00  0.00    -0.298 N 
ATOM      4  C11 UNL     1      22.020   2.518  26.155  0.00  0.00    +0.126 C 
ATOM      5  C12 UNL     1      21.354   2.914  24.835  0.00  0.00    +0.125 C 
ATOM      6  N3  UNL     1      21.327   4.374  24.699  0.00  0.00    -0.312 N 
ATOM      7  C18 UNL     1      20.749   5.144  25.808  0.00  0.00    +0.125 C 
ATOM      8  C19 UNL     1      21.433   4.763  27.120  0.00  0.00    +0.126 C 
ENDROOT
BRANCH   6   9
ATOM      9  C13 UNL     1      21.496   4.974  23.401  0.00  0.00    +0.121 A 
ATOM     10  C14 UNL     1      20.744   4.534  22.302  0.00  0.00    +0.045 A 
ATOM     11  C15 UNL     1      20.915   5.152  21.061  0.00  0.00    +0.025 A 
ATOM     12  C16 UNL     1      21.827   6.201  20.925  0.00  0.00    +0.059 A 
ATOM     13 CL1  UNL     1      22.044   6.992  19.376  0.00  0.00    -0.082 Cl
ATOM     14  C17 UNL     1      22.555   6.617  22.040  0.00  0.00    +0.132 A 
ATOM     15  N4  UNL     1      22.374   6.004  23.241  0.00  0.00    -0.239 NA
ENDBRANCH   6   9
BRANCH   1  16
ATOM     16  C9  UNL     1      20.362   3.211  29.580  0.00  0.00    +0.151 C 
BRANCH  16  19
ATOM     17  C7  UNL     1      22.360   5.217  31.919  0.00  0.00    +0.109 A 
ATOM     18  N1  UNL     1      21.765   4.925  30.739  0.00  0.00    -0.243 NA
ATOM     19  C8  UNL     1      21.058   3.762  30.790  0.00  0.00    +0.058 A 
ATOM     20  C20 UNL     1      21.094   3.099  32.015  0.00  0.00    +0.071 A 
ATOM     21  S1  UNL     1      22.031   4.022  33.063  0.00  0.00    -0.075 S 
BRANCH  17  27
ATOM     22  C1  UNL     1      23.684   9.904  30.653  0.00  0.00    +0.044 C 
ATOM     23  C2  UNL     1      23.830   8.706  31.545  0.00  0.00    -0.050 A 
ATOM     24  C3  UNL     1      24.793   8.697  32.564  0.00  0.00    +0.003 A 
ATOM     25  C4  UNL     1      24.948   7.569  33.374  0.00  0.00    +0.001 A 
ATOM     26  C5  UNL     1      24.152   6.439  33.165  0.00  0.00    +0.010 A 
ATOM     27  C6  UNL     1      23.194   6.422  32.136  0.00  0.00    +0.007 A 
ATOM     28  C21 UNL     1      23.044   7.563  31.323  0.00  0.00    +0.014 A 
ENDBRANCH  17  27
ENDBRANCH  16  19
ENDBRANCH   1  16
TORSDOF 4
ENDMDL
MODEL 8
REMARK VINA RESULT:    -6.484     13.217     15.659
REMARK INTER + INTRA:          -8.718
REMARK INTER:                  -8.183
REMARK INTRA:                  -0.534
REMARK UNBOUND:                -0.718
REMARK  Name = /home/qwerty/github/datacon2025hack/step_04_hit_selection/docking/ligands/lig_221.pdb
REMARK  5 active torsions:
REMARK  status: ('A' for Active; 'I' for Inactive)
REMARK    1  A    between atoms: C1_1  and  C2_2
REMARK    2  A    between atoms: C6_6  and  C7_7
REMARK    3  A    between atoms: C8_9  and  C9_10
REMARK    4  A    between atoms: C9_10  and  C10_11
REMARK    5  A    between atoms: N3_16  and  C13_17
REMARK                            x       y       z     vdW  Elec       q    Type
REMARK                         _______ _______ _______ _____ _____    ______ ____
ROOT
ATOM      1  C10 UNL     1      20.278   1.388  29.321  0.00  0.00    +0.221 C 
ATOM      2  O1  UNL     1      19.119   1.039  29.677  0.00  0.00    -0.275 OA
ATOM      3  N2  UNL     1      20.470   2.016  28.038  0.00  0.00    -0.298 N 
ATOM      4  C11 UNL     1      19.351   2.734  27.414  0.00  0.00    +0.126 C 
ATOM      5  C12 UNL     1      19.865   3.929  26.607  0.00  0.00    +0.125 C 
ATOM      6  N3  UNL     1      20.979   3.518  25.747  0.00  0.00    -0.312 N 
ATOM      7  C18 UNL     1      22.102   2.819  26.386  0.00  0.00    +0.125 C 
ATOM      8  C19 UNL     1      21.587   1.614  27.171  0.00  0.00    +0.126 C 
ENDROOT
BRANCH   6   9
ATOM      9  C13 UNL     1      21.133   4.111  24.445  0.00  0.00    +0.121 A 
ATOM     10  C14 UNL     1      20.440   3.602  23.336  0.00  0.00    +0.045 A 
ATOM     11  C15 UNL     1      20.593   4.214  22.090  0.00  0.00    +0.025 A 
ATOM     12  C16 UNL     1      21.429   5.325  21.958  0.00  0.00    +0.059 A 
ATOM     13 CL1  UNL     1      21.622   6.110  20.402  0.00  0.00    -0.082 Cl
ATOM     14  C17 UNL     1      22.100   5.809  23.082  0.00  0.00    +0.132 A 
ATOM     15  N4  UNL     1      21.936   5.201  24.287  0.00  0.00    -0.239 NA
ENDBRANCH   6   9
BRANCH   1  16
ATOM     16  C9  UNL     1      21.447   1.100  30.225  0.00  0.00    +0.151 C 
BRANCH  16  19
ATOM     17  C7  UNL     1      21.941   3.660  32.812  0.00  0.00    +0.109 A 
ATOM     18  N1  UNL     1      22.087   3.093  31.591  0.00  0.00    -0.243 NA
ATOM     19  C8  UNL     1      21.387   1.931  31.473  0.00  0.00    +0.058 A 
ATOM     20  C20 UNL     1      20.683   1.545  32.611  0.00  0.00    +0.071 A 
ATOM     21  S1  UNL     1      20.940   2.717  33.789  0.00  0.00    -0.075 S 
BRANCH  17  27
ATOM     22  C1  UNL     1      23.323   6.946  36.364  0.00  0.00    +0.044 C 
ATOM     23  C2  UNL     1      23.296   6.518  34.926  0.00  0.00    -0.050 A 
ATOM     24  C3  UNL     1      23.853   7.338  33.934  0.00  0.00    +0.003 A 
ATOM     25  C4  UNL     1      23.801   6.952  32.592  0.00  0.00    +0.001 A 
ATOM     26  C5  UNL     1      23.182   5.752  32.229  0.00  0.00    +0.010 A 
ATOM     27  C6  UNL     1      22.600   4.926  33.208  0.00  0.00    +0.007 A 
ATOM     28  C21 UNL     1      22.657   5.322  34.558  0.00  0.00    +0.014 A 
ENDBRANCH  17  27
ENDBRANCH  16  19
ENDBRANCH   1  16
TORSDOF 4
ENDMDL
MODEL 9
REMARK VINA RESULT:    -6.396      6.659     10.433
REMARK INTER + INTRA:          -8.610
REMARK INTER:                  -8.118
REMARK INTRA:                  -0.492
REMARK UNBOUND:                -0.718
REMARK  Name = /home/qwerty/github/datacon2025hack/step_04_hit_selection/docking/ligands/lig_221.pdb
REMARK  5 active torsions:
REMARK  status: ('A' for Active; 'I' for Inactive)
REMARK    1  A    between atoms: C1_1  and  C2_2
REMARK    2  A    between atoms: C6_6  and  C7_7
REMARK    3  A    between atoms: C8_9  and  C9_10
REMARK    4  A    between atoms: C9_10  and  C10_11
REMARK    5  A    between atoms: N3_16  and  C13_17
REMARK                            x       y       z     vdW  Elec       q    Type
REMARK                         _______ _______ _______ _____ _____    ______ ____
ROOT
ATOM      1  C10 UNL     1       9.264   7.439  21.525  0.00  0.00    +0.221 C 
ATOM      2  O1  UNL     1       9.064   8.344  20.668  0.00  0.00    -0.275 OA
ATOM      3  N2  UNL     1      10.236   6.409  21.259  0.00  0.00    -0.298 N 
ATOM      4  C11 UNL     1      11.339   6.684  20.328  0.00  0.00    +0.126 C 
ATOM      5  C12 UNL     1      12.603   5.936  20.759  0.00  0.00    +0.125 C 
ATOM      6  N3  UNL     1      12.287   4.534  21.051  0.00  0.00    -0.312 N 
ATOM      7  C18 UNL     1      11.196   4.272  21.999  0.00  0.00    +0.125 C 
ATOM      8  C19 UNL     1       9.930   5.002  21.552  0.00  0.00    +0.126 C 
ENDROOT
BRANCH   6   9
ATOM      9  C13 UNL     1      13.241   3.505  20.732  0.00  0.00    +0.121 A 
ATOM     10  C14 UNL     1      14.469   3.824  20.133  0.00  0.00    +0.045 A 
ATOM     11  C15 UNL     1      15.383   2.804  19.856  0.00  0.00    +0.025 A 
ATOM     12  C16 UNL     1      15.071   1.482  20.179  0.00  0.00    +0.059 A 
ATOM     13 CL1  UNL     1      16.213   0.195  19.847  0.00  0.00    -0.082 Cl
ATOM     14  C17 UNL     1      13.843   1.200  20.778  0.00  0.00    +0.132 A 
ATOM     15  N4  UNL     1      12.966   2.207  21.042  0.00  0.00    -0.239 NA
ENDBRANCH   6   9
BRANCH   1  16
ATOM     16  C9  UNL     1       8.451   7.428  22.791  0.00  0.00    +0.151 C 
BRANCH  16  19
ATOM     17  C7  UNL     1       9.051   9.546  25.731  0.00  0.00    +0.109 A 
ATOM     18  N1  UNL     1       8.360   8.680  24.953  0.00  0.00    -0.243 NA
ATOM     19  C8  UNL     1       9.047   8.333  23.829  0.00  0.00    +0.058 A 
ATOM     20  C20 UNL     1      10.296   8.935  23.688  0.00  0.00    +0.071 A 
ATOM     21  S1  UNL     1      10.541   9.915  25.031  0.00  0.00    -0.075 S 
BRANCH  17  27
ATOM     22  C1  UNL     1       8.615  13.330  29.020  0.00  0.00    +0.044 C 
ATOM     23  C2  UNL     1       8.294  11.925  28.602  0.00  0.00    -0.050 A 
ATOM     24  C3  UNL     1       7.537  11.094  29.440  0.00  0.00    +0.003 A 
ATOM     25  C4  UNL     1       7.264   9.776  29.063  0.00  0.00    +0.001 A 
ATOM     26  C5  UNL     1       7.755   9.276  27.853  0.00  0.00    +0.010 A 
ATOM     27  C6  UNL     1       8.532  10.088  27.008  0.00  0.00    +0.007 A 
ATOM     28  C21 UNL     1       8.803  11.414  27.396  0.00  0.00    +0.014 A 
ENDBRANCH  17  27
ENDBRANCH  16  19
ENDBRANCH   1  16
TORSDOF 4
ENDMDL
