MODEL 1
REMARK VINA RESULT:    -6.504      0.000      0.000
REMARK INTER + INTRA:          -8.813
REMARK INTER:                  -8.025
REMARK INTRA:                  -0.788
REMARK UNBOUND:                -0.788
REMARK  Name = /home/qwerty/github/datacon2025hack/step_04_hit_selection/docking/ligands/lig_4.pdb
REMARK  5 active torsions:
REMARK  status: ('A' for Active; 'I' for Inactive)
REMARK    1  A    between atoms: C1_1  and  O1_2
REMARK    2  A    between atoms: O1_2  and  C2_3
REMARK    3  A    between atoms: C2_3  and  C3_5
REMARK    4  A    between atoms: C8_12  and  N1_13
REMARK    5  A    between atoms: N2_16  and  C10_17
REMARK                            x       y       z     vdW  Elec       q    Type
REMARK                         _______ _______ _______ _____ _____    ______ ____
ROOT
ATOM      1  N1  UNL     1      10.304   5.165  19.921  0.00  0.00    -0.268 N 
ATOM      2  C9  UNL     1      11.253   4.417  20.693  0.00  0.00    +0.308 C 
ATOM      3  O3  UNL     1      11.845   4.960  21.667  0.00  0.00    -0.252 OA
ATOM      4  N2  UNL     1      11.575   3.072  20.310  0.00  0.00    -0.267 N 
ATOM      5  H6  UNL     1       9.942   4.743  19.036  0.00  0.00    +0.156 HD
ATOM      6  H7  UNL     1      11.286   2.758  19.356  0.00  0.00    +0.156 HD
ENDROOT
BRANCH   1  14
ATOM      7  C3  UNL     1       8.559   6.667  20.853  0.00  0.00    +0.082 A 
ATOM      8  C4  UNL     1       8.194   7.950  21.305  0.00  0.00    +0.038 A 
ATOM      9  C5  UNL     1       9.074   9.029  21.190  0.00  0.00    +0.060 A 
ATOM     10 CL1  UNL     1       8.559  10.611  21.760  0.00  0.00    -0.082 Cl
ATOM     11  C6  UNL     1      10.343   8.838  20.627  0.00  0.00    +0.061 A 
ATOM     12 CL2  UNL     1      11.482  10.169  20.474  0.00  0.00    -0.082 Cl
ATOM     13  C7  UNL     1      10.724   7.568  20.188  0.00  0.00    +0.045 A 
ATOM     14  C8  UNL     1       9.846   6.475  20.293  0.00  0.00    +0.050 A 
BRANCH   7  15
ATOM     15  C2  UNL     1       7.569   5.567  20.940  0.00  0.00    +0.341 C 
ATOM     16  O2  UNL     1       6.452   5.680  20.362  0.00  0.00    -0.245 OA
BRANCH  15  18
ATOM     17  C1  UNL     1       7.434   4.126  22.949  0.00  0.00    +0.280 C 
ATOM     18  O1  UNL     1       7.881   4.388  21.625  0.00  0.00    -0.464 OA
ENDBRANCH  15  18
ENDBRANCH   7  15
ENDBRANCH   1  14
BRANCH   4  19
ATOM     19  C10 UNL     1      12.354   2.169  21.116  0.00  0.00    +0.073 A 
ATOM     20  C11 UNL     1      11.800   1.537  22.245  0.00  0.00    +0.064 A 
ATOM     21  C12 UNL     1      12.565   0.645  23.002  0.00  0.00    +0.125 A 
ATOM     22  F1  UNL     1      12.025   0.040  24.088  0.00  0.00    -0.205 F 
ATOM     23  C13 UNL     1      13.884   0.366  22.633  0.00  0.00    +0.041 A 
ATOM     24  C14 UNL     1      14.436   0.974  21.503  0.00  0.00    +0.043 A 
ATOM     25  C15 UNL     1      13.674   1.866  20.742  0.00  0.00    +0.145 A 
ATOM     26  F2  UNL     1      14.229   2.448  19.648  0.00  0.00    -0.204 F 
ENDBRANCH   4  19
TORSDOF 4
ENDMDL
MODEL 2
REMARK VINA RESULT:    -6.434      4.099      7.347
REMARK INTER + INTRA:          -8.727
REMARK INTER:                  -7.761
REMARK INTRA:                  -0.966
REMARK UNBOUND:                -0.788
REMARK  Name = /home/qwerty/github/datacon2025hack/step_04_hit_selection/docking/ligands/lig_4.pdb
REMARK  5 active torsions:
REMARK  status: ('A' for Active; 'I' for Inactive)
REMARK    1  A    between atoms: C1_1  and  O1_2
REMARK    2  A    between atoms: O1_2  and  C2_3
REMARK    3  A    between atoms: C2_3  and  C3_5
REMARK    4  A    between atoms: C8_12  and  N1_13
REMARK    5  A    between atoms: N2_16  and  C10_17
REMARK                            x       y       z     vdW  Elec       q    Type
REMARK                         _______ _______ _______ _____ _____    ______ ____
ROOT
ATOM      1  N1  UNL     1      10.995   4.231  20.143  0.00  0.00    -0.268 N 
ATOM      2  C9  UNL     1      10.778   5.546  20.676  0.00  0.00    +0.308 C 
ATOM      3  O3  UNL     1      11.430   5.935  21.684  0.00  0.00    -0.252 OA
ATOM      4  N2  UNL     1       9.770   6.387  20.096  0.00  0.00    -0.267 N 
ATOM      5  H6  UNL     1      10.341   3.881  19.407  0.00  0.00    +0.156 HD
ATOM      6  H7  UNL     1       9.072   5.939  19.461  0.00  0.00    +0.156 HD
ENDROOT
BRANCH   1  14
ATOM      7  C3  UNL     1      11.796   2.324  21.518  0.00  0.00    +0.082 A 
ATOM      8  C4  UNL     1      12.834   1.431  21.845  0.00  0.00    +0.038 A 
ATOM      9  C5  UNL     1      14.106   1.572  21.284  0.00  0.00    +0.060 A 
ATOM     10 CL1  UNL     1      15.367   0.435  21.740  0.00  0.00    -0.082 Cl
ATOM     11  C6  UNL     1      14.357   2.609  20.375  0.00  0.00    +0.061 A 
ATOM     12 CL2  UNL     1      15.941   2.813  19.640  0.00  0.00    -0.082 Cl
ATOM     13  C7  UNL     1      13.332   3.493  20.030  0.00  0.00    +0.045 A 
ATOM     14  C8  UNL     1      12.050   3.366  20.592  0.00  0.00    +0.050 A 
BRANCH   7  15
ATOM     15  C2  UNL     1      10.480   2.172  22.186  0.00  0.00    +0.341 C 
ATOM     16  O2  UNL     1       9.868   1.069  22.123  0.00  0.00    -0.245 OA
BRANCH  15  18
ATOM     17  C1  UNL     1       8.559   3.591  22.838  0.00  0.00    +0.280 C 
ATOM     18  O1  UNL     1       9.932   3.231  22.916  0.00  0.00    -0.464 OA
ENDBRANCH  15  18
ENDBRANCH   7  15
ENDBRANCH   1  14
BRANCH   4  19
ATOM     19  C10 UNL     1       9.602   7.780  20.416  0.00  0.00    +0.073 A 
ATOM     20  C11 UNL     1      10.457   8.759  19.874  0.00  0.00    +0.064 A 
ATOM     21  C12 UNL     1      10.264  10.111  20.177  0.00  0.00    +0.125 A 
ATOM     22  F1  UNL     1      11.091  11.048  19.652  0.00  0.00    -0.205 F 
ATOM     23  C13 UNL     1       9.212  10.498  21.012  0.00  0.00    +0.041 A 
ATOM     24  C14 UNL     1       8.348   9.535  21.538  0.00  0.00    +0.043 A 
ATOM     25  C15 UNL     1       8.535   8.182  21.238  0.00  0.00    +0.145 A 
ATOM     26  F2  UNL     1       7.686   7.261  21.760  0.00  0.00    -0.204 F 
ENDBRANCH   4  19
TORSDOF 4
ENDMDL
MODEL 3
REMARK VINA RESULT:    -6.421     15.139     16.939
REMARK INTER + INTRA:          -8.711
REMARK INTER:                  -7.692
REMARK INTRA:                  -1.018
REMARK UNBOUND:                -0.788
REMARK  Name = /home/qwerty/github/datacon2025hack/step_04_hit_selection/docking/ligands/lig_4.pdb
REMARK  5 active torsions:
REMARK  status: ('A' for Active; 'I' for Inactive)
REMARK    1  A    between atoms: C1_1  and  O1_2
REMARK    2  A    between atoms: O1_2  and  C2_3
REMARK    3  A    between atoms: C2_3  and  C3_5
REMARK    4  A    between atoms: C8_12  and  N1_13
REMARK    5  A    between atoms: N2_16  and  C10_17
REMARK                            x       y       z     vdW  Elec       q    Type
REMARK                         _______ _______ _______ _____ _____    ______ ____
ROOT
ATOM      1  N1  UNL     1      22.549   5.067  34.493  0.00  0.00    -0.268 N 
ATOM      2  C9  UNL     1      21.822   4.271  33.546  0.00  0.00    +0.308 C 
ATOM      3  O3  UNL     1      20.735   4.695  33.066  0.00  0.00    -0.252 OA
ATOM      4  N2  UNL     1      22.305   2.964  33.201  0.00  0.00    -0.267 N 
ATOM      5  H6  UNL     1      23.362   4.632  34.985  0.00  0.00    +0.156 HD
ATOM      6  H7  UNL     1      23.037   2.541  33.815  0.00  0.00    +0.156 HD
ENDROOT
BRANCH   1  14
ATOM      7  C3  UNL     1      22.753   7.511  34.099  0.00  0.00    +0.082 A 
ATOM      8  C4  UNL     1      22.298   8.814  34.374  0.00  0.00    +0.038 A 
ATOM      9  C5  UNL     1      21.324   9.044  35.349  0.00  0.00    +0.060 A 
ATOM     10 CL1  UNL     1      20.803  10.695  35.658  0.00  0.00    -0.082 Cl
ATOM     11  C6  UNL     1      20.783   7.966  36.062  0.00  0.00    +0.061 A 
ATOM     12 CL2  UNL     1      19.548   8.214  37.290  0.00  0.00    -0.082 Cl
ATOM     13  C7  UNL     1      21.215   6.666  35.790  0.00  0.00    +0.045 A 
ATOM     14  C8  UNL     1      22.197   6.422  34.815  0.00  0.00    +0.050 A 
BRANCH   7  15
ATOM     15  C2  UNL     1      23.832   7.322  33.099  0.00  0.00    +0.341 C 
ATOM     16  O2  UNL     1      24.991   7.764  33.335  0.00  0.00    -0.245 OA
BRANCH  15  18
ATOM     17  C1  UNL     1      22.554   6.996  31.003  0.00  0.00    +0.280 C 
ATOM     18  O1  UNL     1      23.582   6.625  31.913  0.00  0.00    -0.464 OA
ENDBRANCH  15  18
ENDBRANCH   7  15
ENDBRANCH   1  14
BRANCH   4  19
ATOM     19  C10 UNL     1      21.773   2.166  32.128  0.00  0.00    +0.073 A 
ATOM     20  C11 UNL     1      22.377   2.159  30.857  0.00  0.00    +0.064 A 
ATOM     21  C12 UNL     1      21.860   1.359  29.833  0.00  0.00    +0.125 A 
ATOM     22  F1  UNL     1      22.448   1.357  28.611  0.00  0.00    -0.205 F 
ATOM     23  C13 UNL     1      20.745   0.552  30.072  0.00  0.00    +0.041 A 
ATOM     24  C14 UNL     1      20.150   0.538  31.335  0.00  0.00    +0.043 A 
ATOM     25  C15 UNL     1      20.664   1.335  32.363  0.00  0.00    +0.145 A 
ATOM     26  F2  UNL     1      20.071   1.310  33.584  0.00  0.00    -0.204 F 
ENDBRANCH   4  19
TORSDOF 4
ENDMDL
MODEL 4
REMARK VINA RESULT:    -6.321     17.882     19.410
REMARK INTER + INTRA:          -8.586
REMARK INTER:                  -7.681
REMARK INTRA:                  -0.905
REMARK UNBOUND:                -0.788
REMARK  Name = /home/qwerty/github/datacon2025hack/step_04_hit_selection/docking/ligands/lig_4.pdb
REMARK  5 active torsions:
REMARK  status: ('A' for Active; 'I' for Inactive)
REMARK    1  A    between atoms: C1_1  and  O1_2
REMARK    2  A    between atoms: O1_2  and  C2_3
REMARK    3  A    between atoms: C2_3  and  C3_5
REMARK    4  A    between atoms: C8_12  and  N1_13
REMARK    5  A    between atoms: N2_16  and  C10_17
REMARK                            x       y       z     vdW  Elec       q    Type
REMARK                         _______ _______ _______ _____ _____    ______ ____
ROOT
ATOM      1  N1  UNL     1      18.368  11.384  37.464  0.00  0.00    -0.268 N 
ATOM      2  C9  UNL     1      17.201  11.842  36.767  0.00  0.00    +0.308 C 
ATOM      3  O3  UNL     1      16.923  11.380  35.626  0.00  0.00    -0.252 OA
ATOM      4  N2  UNL     1      16.390  12.876  37.346  0.00  0.00    -0.267 N 
ATOM      5  H6  UNL     1      18.656  11.888  38.333  0.00  0.00    +0.156 HD
ATOM      6  H7  UNL     1      16.796  13.422  38.139  0.00  0.00    +0.156 HD
ENDROOT
BRANCH   1  14
ATOM      7  C3  UNL     1      20.270  10.495  36.136  0.00  0.00    +0.082 A 
ATOM      8  C4  UNL     1      21.098   9.406  35.804  0.00  0.00    +0.038 A 
ATOM      9  C5  UNL     1      20.843   8.129  36.311  0.00  0.00    +0.060 A 
ATOM     10 CL1  UNL     1      21.905   6.805  35.852  0.00  0.00    -0.082 Cl
ATOM     11  C6  UNL     1      19.753   7.923  37.167  0.00  0.00    +0.061 A 
ATOM     12 CL2  UNL     1      19.405   6.332  37.832  0.00  0.00    -0.082 Cl
ATOM     13  C7  UNL     1      18.931   8.997  37.516  0.00  0.00    +0.045 A 
ATOM     14  C8  UNL     1      19.174  10.285  37.010  0.00  0.00    +0.050 A 
BRANCH   7  15
ATOM     15  C2  UNL     1      20.544  11.818  35.526  0.00  0.00    +0.341 C 
ATOM     16  O2  UNL     1      21.017  12.750  36.234  0.00  0.00    -0.245 OA
BRANCH  15  18
ATOM     17  C1  UNL     1      19.298  12.892  33.674  0.00  0.00    +0.280 C 
ATOM     18  O1  UNL     1      20.317  12.028  34.162  0.00  0.00    -0.464 OA
ENDBRANCH  15  18
ENDBRANCH   7  15
ENDBRANCH   1  14
BRANCH   4  19
ATOM     19  C10 UNL     1      15.103  13.269  36.837  0.00  0.00    +0.073 A 
ATOM     20  C11 UNL     1      13.971  12.449  37.006  0.00  0.00    +0.064 A 
ATOM     21  C12 UNL     1      12.724  12.859  36.526  0.00  0.00    +0.125 A 
ATOM     22  F1  UNL     1      11.638  12.064  36.692  0.00  0.00    -0.205 F 
ATOM     23  C13 UNL     1      12.592  14.094  35.885  0.00  0.00    +0.041 A 
ATOM     24  C14 UNL     1      13.705  14.923  35.730  0.00  0.00    +0.043 A 
ATOM     25  C15 UNL     1      14.955  14.518  36.210  0.00  0.00    +0.145 A 
ATOM     26  F2  UNL     1      16.026  15.337  36.048  0.00  0.00    -0.204 F 
ENDBRANCH   4  19
TORSDOF 4
ENDMDL
MODEL 5
REMARK VINA RESULT:    -6.188      1.730      2.218
REMARK INTER + INTRA:          -8.423
REMARK INTER:                  -7.490
REMARK INTRA:                  -0.933
REMARK UNBOUND:                -0.788
REMARK  Name = /home/qwerty/github/datacon2025hack/step_04_hit_selection/docking/ligands/lig_4.pdb
REMARK  5 active torsions:
REMARK  status: ('A' for Active; 'I' for Inactive)
REMARK    1  A    between atoms: C1_1  and  O1_2
REMARK    2  A    between atoms: O1_2  and  C2_3
REMARK    3  A    between atoms: C2_3  and  C3_5
REMARK    4  A    between atoms: C8_12  and  N1_13
REMARK    5  A    between atoms: N2_16  and  C10_17
REMARK                            x       y       z     vdW  Elec       q    Type
REMARK                         _______ _______ _______ _____ _____    ______ ____
ROOT
ATOM      1  N1  UNL     1      10.313   5.402  20.001  0.00  0.00    -0.268 N 
ATOM      2  C9  UNL     1      11.657   5.007  20.308  0.00  0.00    +0.308 C 
ATOM      3  O3  UNL     1      12.327   5.649  21.163  0.00  0.00    -0.252 OA
ATOM      4  N2  UNL     1      12.257   3.919  19.588  0.00  0.00    -0.267 N 
ATOM      5  H6  UNL     1       9.837   4.950  19.188  0.00  0.00    +0.156 HD
ATOM      6  H7  UNL     1      11.785   3.600  18.712  0.00  0.00    +0.156 HD
ENDROOT
BRANCH   1  14
ATOM      7  C3  UNL     1       8.857   6.070  21.899  0.00  0.00    +0.082 A 
ATOM      8  C4  UNL     1       8.266   7.100  22.656  0.00  0.00    +0.038 A 
ATOM      9  C5  UNL     1       8.392   8.437  22.270  0.00  0.00    +0.060 A 
ATOM     10 CL1  UNL     1       7.622   9.680  23.248  0.00  0.00    -0.082 Cl
ATOM     11  C6  UNL     1       9.121   8.766  21.120  0.00  0.00    +0.061 A 
ATOM     12 CL2  UNL     1       9.310  10.438  20.607  0.00  0.00    -0.082 Cl
ATOM     13  C7  UNL     1       9.724   7.756  20.368  0.00  0.00    +0.045 A 
ATOM     14  C8  UNL     1       9.601   6.407  20.742  0.00  0.00    +0.050 A 
BRANCH   7  15
ATOM     15  C2  UNL     1       8.644   4.662  22.313  0.00  0.00    +0.341 C 
ATOM     16  O2  UNL     1       7.495   4.147  22.222  0.00  0.00    -0.245 OA
BRANCH  15  18
ATOM     17  C1  UNL     1       9.917   2.539  22.377  0.00  0.00    +0.280 C 
ATOM     18  O1  UNL     1       9.718   3.891  22.769  0.00  0.00    -0.464 OA
ENDBRANCH  15  18
ENDBRANCH   7  15
ENDBRANCH   1  14
BRANCH   4  19
ATOM     19  C10 UNL     1      13.513   3.314  19.944  0.00  0.00    +0.073 A 
ATOM     20  C11 UNL     1      13.564   2.056  20.574  0.00  0.00    +0.064 A 
ATOM     21  C12 UNL     1      14.794   1.473  20.890  0.00  0.00    +0.125 A 
ATOM     22  F1  UNL     1      14.835   0.262  21.498  0.00  0.00    -0.205 F 
ATOM     23  C13 UNL     1      15.984   2.132  20.569  0.00  0.00    +0.041 A 
ATOM     24  C14 UNL     1      15.944   3.371  19.926  0.00  0.00    +0.043 A 
ATOM     25  C15 UNL     1      14.716   3.958  19.607  0.00  0.00    +0.145 A 
ATOM     26  F2  UNL     1      14.697   5.164  18.983  0.00  0.00    -0.204 F 
ENDBRANCH   4  19
TORSDOF 4
ENDMDL
MODEL 6
REMARK VINA RESULT:    -6.004      4.967      8.533
REMARK INTER + INTRA:          -8.195
REMARK INTER:                  -7.212
REMARK INTRA:                  -0.983
REMARK UNBOUND:                -0.788
REMARK  Name = /home/qwerty/github/datacon2025hack/step_04_hit_selection/docking/ligands/lig_4.pdb
REMARK  5 active torsions:
REMARK  status: ('A' for Active; 'I' for Inactive)
REMARK    1  A    between atoms: C1_1  and  O1_2
REMARK    2  A    between atoms: O1_2  and  C2_3
REMARK    3  A    between atoms: C2_3  and  C3_5
REMARK    4  A    between atoms: C8_12  and  N1_13
REMARK    5  A    between atoms: N2_16  and  C10_17
REMARK                            x       y       z     vdW  Elec       q    Type
REMARK                         _______ _______ _______ _____ _____    ______ ____
ROOT
ATOM      1  N1  UNL     1      13.343   0.325  21.753  0.00  0.00    -0.268 N 
ATOM      2  C9  UNL     1      12.715   1.606  21.901  0.00  0.00    +0.308 C 
ATOM      3  O3  UNL     1      13.094   2.396  22.809  0.00  0.00    -0.252 OA
ATOM      4  N2  UNL     1      11.610   1.955  21.053  0.00  0.00    -0.267 N 
ATOM      5  H6  UNL     1      12.913  -0.365  21.096  0.00  0.00    +0.156 HD
ATOM      6  H7  UNL     1      11.151   1.186  20.516  0.00  0.00    +0.156 HD
ENDROOT
BRANCH   1  14
ATOM      7  C3  UNL     1      15.798  -0.031  21.880  0.00  0.00    +0.082 A 
ATOM      8  C4  UNL     1      16.932  -0.314  22.665  0.00  0.00    +0.038 A 
ATOM      9  C5  UNL     1      16.806  -0.640  24.018  0.00  0.00    +0.060 A 
ATOM     10 CL1  UNL     1      18.257  -0.997  24.945  0.00  0.00    -0.082 Cl
ATOM     11  C6  UNL     1      15.537  -0.682  24.610  0.00  0.00    +0.061 A 
ATOM     12 CL2  UNL     1      15.338  -1.080  26.312  0.00  0.00    -0.082 Cl
ATOM     13  C7  UNL     1      14.404  -0.389  23.847  0.00  0.00    +0.045 A 
ATOM     14  C8  UNL     1      14.517  -0.064  22.485  0.00  0.00    +0.050 A 
BRANCH   7  15
ATOM     15  C2  UNL     1      15.976   0.251  20.435  0.00  0.00    +0.341 C 
ATOM     16  O2  UNL     1      16.570  -0.587  19.701  0.00  0.00    -0.245 OA
BRANCH  15  18
ATOM     17  C1  UNL     1      15.931   2.718  20.217  0.00  0.00    +0.280 C 
ATOM     18  O1  UNL     1      15.456   1.422  19.875  0.00  0.00    -0.464 OA
ENDBRANCH  15  18
ENDBRANCH   7  15
ENDBRANCH   1  14
BRANCH   4  19
ATOM     19  C10 UNL     1      11.038   3.273  20.978  0.00  0.00    +0.073 A 
ATOM     20  C11 UNL     1       9.850   3.592  21.665  0.00  0.00    +0.064 A 
ATOM     21  C12 UNL     1       9.322   4.884  21.600  0.00  0.00    +0.125 A 
ATOM     22  F1  UNL     1       8.178   5.184  22.263  0.00  0.00    -0.205 F 
ATOM     23  C13 UNL     1       9.978   5.873  20.861  0.00  0.00    +0.041 A 
ATOM     24  C14 UNL     1      11.167   5.571  20.193  0.00  0.00    +0.043 A 
ATOM     25  C15 UNL     1      11.701   4.280  20.255  0.00  0.00    +0.145 A 
ATOM     26  F2  UNL     1      12.856   4.006  19.598  0.00  0.00    -0.204 F 
ENDBRANCH   4  19
TORSDOF 4
ENDMDL
MODEL 7
REMARK VINA RESULT:    -5.963      3.072      4.583
REMARK INTER + INTRA:          -8.145
REMARK INTER:                  -7.301
REMARK INTRA:                  -0.844
REMARK UNBOUND:                -0.788
REMARK  Name = /home/qwerty/github/datacon2025hack/step_04_hit_selection/docking/ligands/lig_4.pdb
REMARK  5 active torsions:
REMARK  status: ('A' for Active; 'I' for Inactive)
REMARK    1  A    between atoms: C1_1  and  O1_2
REMARK    2  A    between atoms: O1_2  and  C2_3
REMARK    3  A    between atoms: C2_3  and  C3_5
REMARK    4  A    between atoms: C8_12  and  N1_13
REMARK    5  A    between atoms: N2_16  and  C10_17
REMARK                            x       y       z     vdW  Elec       q    Type
REMARK                         _______ _______ _______ _____ _____    ______ ____
ROOT
ATOM      1  N1  UNL     1      12.047   2.161  20.703  0.00  0.00    -0.268 N 
ATOM      2  C9  UNL     1      13.184   1.704  21.450  0.00  0.00    +0.308 C 
ATOM      3  O3  UNL     1      13.619   2.383  22.420  0.00  0.00    -0.252 OA
ATOM      4  N2  UNL     1      13.862   0.505  21.043  0.00  0.00    -0.267 N 
ATOM      5  H6  UNL     1      11.801   1.661  19.819  0.00  0.00    +0.156 HD
ATOM      6  H7  UNL     1      13.653   0.131  20.090  0.00  0.00    +0.156 HD
ENDROOT
BRANCH   1  14
ATOM      7  C3  UNL     1      11.594   4.603  20.704  0.00  0.00    +0.082 A 
ATOM      8  C4  UNL     1      10.724   5.664  21.021  0.00  0.00    +0.038 A 
ATOM      9  C5  UNL     1       9.542   5.435  21.731  0.00  0.00    +0.060 A 
ATOM     10 CL1  UNL     1       8.500   6.800  22.110  0.00  0.00    -0.082 Cl
ATOM     11  C6  UNL     1       9.207   4.134  22.129  0.00  0.00    +0.061 A 
ATOM     12 CL2  UNL     1       7.724   3.805  23.015  0.00  0.00    -0.082 Cl
ATOM     13  C7  UNL     1      10.054   3.070  21.808  0.00  0.00    +0.045 A 
ATOM     14  C8  UNL     1      11.248   3.287  21.100  0.00  0.00    +0.050 A 
BRANCH   7  15
ATOM     15  C2  UNL     1      12.866   4.903  20.003  0.00  0.00    +0.341 C 
ATOM     16  O2  UNL     1      13.063   4.452  18.840  0.00  0.00    -0.245 OA
BRANCH  15  18
ATOM     17  C1  UNL     1      15.165   5.278  20.843  0.00  0.00    +0.280 C 
ATOM     18  O1  UNL     1      13.832   5.713  20.609  0.00  0.00    -0.464 OA
ENDBRANCH  15  18
ENDBRANCH   7  15
ENDBRANCH   1  14
BRANCH   4  19
ATOM     19  C10 UNL     1      14.879  -0.148  21.824  0.00  0.00    +0.073 A 
ATOM     20  C11 UNL     1      14.581  -0.722  23.074  0.00  0.00    +0.064 A 
ATOM     21  C12 UNL     1      15.577  -1.374  23.808  0.00  0.00    +0.125 A 
ATOM     22  F1  UNL     1      15.283  -1.924  25.011  0.00  0.00    -0.205 F 
ATOM     23  C13 UNL     1      16.874  -1.469  23.296  0.00  0.00    +0.041 A 
ATOM     24  C14 UNL     1      17.174  -0.919  22.048  0.00  0.00    +0.043 A 
ATOM     25  C15 UNL     1      16.181  -0.267  21.309  0.00  0.00    +0.145 A 
ATOM     26  F2  UNL     1      16.493   0.262  20.099  0.00  0.00    -0.204 F 
ENDBRANCH   4  19
TORSDOF 4
ENDMDL
MODEL 8
REMARK VINA RESULT:    -5.934     12.581     14.376
REMARK INTER + INTRA:          -8.110
REMARK INTER:                  -7.076
REMARK INTRA:                  -1.034
REMARK UNBOUND:                -0.788
REMARK  Name = /home/qwerty/github/datacon2025hack/step_04_hit_selection/docking/ligands/lig_4.pdb
REMARK  5 active torsions:
REMARK  status: ('A' for Active; 'I' for Inactive)
REMARK    1  A    between atoms: C1_1  and  O1_2
REMARK    2  A    between atoms: O1_2  and  C2_3
REMARK    3  A    between atoms: C2_3  and  C3_5
REMARK    4  A    between atoms: C8_12  and  N1_13
REMARK    5  A    between atoms: N2_16  and  C10_17
REMARK                            x       y       z     vdW  Elec       q    Type
REMARK                         _______ _______ _______ _____ _____    ______ ____
ROOT
ATOM      1  N1  UNL     1      10.256  14.048  30.786  0.00  0.00    -0.268 N 
ATOM      2  C9  UNL     1      10.959  13.566  31.940  0.00  0.00    +0.308 C 
ATOM      3  O3  UNL     1      11.327  12.361  31.999  0.00  0.00    -0.252 OA
ATOM      4  N2  UNL     1      11.180  14.446  33.053  0.00  0.00    -0.267 N 
ATOM      5  H6  UNL     1       9.834  15.004  30.827  0.00  0.00    +0.156 HD
ATOM      6  H7  UNL     1      10.628  15.332  33.087  0.00  0.00    +0.156 HD
ENDROOT
BRANCH   1  14
ATOM      7  C3  UNL     1      10.992  13.385  28.509  0.00  0.00    +0.082 A 
ATOM      8  C4  UNL     1      10.849  12.527  27.402  0.00  0.00    +0.038 A 
ATOM      9  C5  UNL     1       9.818  11.584  27.353  0.00  0.00    +0.060 A 
ATOM     10 CL1  UNL     1       9.681  10.548  25.939  0.00  0.00    -0.082 Cl
ATOM     11  C6  UNL     1       8.915  11.481  28.420  0.00  0.00    +0.061 A 
ATOM     12 CL2  UNL     1       7.611  10.302  28.399  0.00  0.00    -0.082 Cl
ATOM     13  C7  UNL     1       9.055  12.317  29.530  0.00  0.00    +0.045 A 
ATOM     14  C8  UNL     1      10.084  13.272  29.590  0.00  0.00    +0.050 A 
BRANCH   7  15
ATOM     15  C2  UNL     1      12.063  14.410  28.489  0.00  0.00    +0.341 C 
ATOM     16  O2  UNL     1      11.991  15.379  27.681  0.00  0.00    -0.245 OA
BRANCH  15  18
ATOM     17  C1  UNL     1      13.880  13.138  29.590  0.00  0.00    +0.280 C 
ATOM     18  O1  UNL     1      13.134  14.331  29.385  0.00  0.00    -0.464 OA
ENDBRANCH  15  18
ENDBRANCH   7  15
ENDBRANCH   1  14
BRANCH   4  19
ATOM     19  C10 UNL     1      12.035  14.134  34.168  0.00  0.00    +0.073 A 
ATOM     20  C11 UNL     1      13.386  14.528  34.182  0.00  0.00    +0.064 A 
ATOM     21  C12 UNL     1      14.196  14.237  35.284  0.00  0.00    +0.125 A 
ATOM     22  F1  UNL     1      15.496  14.620  35.291  0.00  0.00    -0.205 F 
ATOM     23  C13 UNL     1      13.662  13.563  36.386  0.00  0.00    +0.041 A 
ATOM     24  C14 UNL     1      12.318  13.185  36.389  0.00  0.00    +0.043 A 
ATOM     25  C15 UNL     1      11.503  13.474  35.289  0.00  0.00    +0.145 A 
ATOM     26  F2  UNL     1      10.199  13.097  35.310  0.00  0.00    -0.204 F 
ENDBRANCH   4  19
TORSDOF 4
ENDMDL
MODEL 9
REMARK VINA RESULT:    -5.930      5.240      8.754
REMARK INTER + INTRA:          -8.105
REMARK INTER:                  -7.141
REMARK INTRA:                  -0.964
REMARK UNBOUND:                -0.788
REMARK  Name = /home/qwerty/github/datacon2025hack/step_04_hit_selection/docking/ligands/lig_4.pdb
REMARK  5 active torsions:
REMARK  status: ('A' for Active; 'I' for Inactive)
REMARK    1  A    between atoms: C1_1  and  O1_2
REMARK    2  A    between atoms: O1_2  and  C2_3
REMARK    3  A    between atoms: C2_3  and  C3_5
REMARK    4  A    between atoms: C8_12  and  N1_13
REMARK    5  A    between atoms: N2_16  and  C10_17
REMARK                            x       y       z     vdW  Elec       q    Type
REMARK                         _______ _______ _______ _____ _____    ______ ____
ROOT
ATOM      1  N1  UNL     1      14.136   0.685  21.268  0.00  0.00    -0.268 N 
ATOM      2  C9  UNL     1      13.167   1.675  21.643  0.00  0.00    +0.308 C 
ATOM      3  O3  UNL     1      13.103   2.077  22.837  0.00  0.00    -0.252 OA
ATOM      4  N2  UNL     1      12.229   2.153  20.667  0.00  0.00    -0.267 N 
ATOM      5  H6  UNL     1      14.069   0.263  20.315  0.00  0.00    +0.156 HD
ATOM      6  H7  UNL     1      12.129   1.605  19.783  0.00  0.00    +0.156 HD
ENDROOT
BRANCH   1  14
ATOM      7  C3  UNL     1      16.343   1.004  22.361  0.00  0.00    +0.082 A 
ATOM      8  C4  UNL     1      17.285   0.574  23.315  0.00  0.00    +0.038 A 
ATOM      9  C5  UNL     1      17.089  -0.608  24.036  0.00  0.00    +0.060 A 
ATOM     10 CL1  UNL     1      18.306  -1.102  25.205  0.00  0.00    -0.082 Cl
ATOM     11  C6  UNL     1      15.938  -1.376  23.816  0.00  0.00    +0.061 A 
ATOM     12 CL2  UNL     1      15.651  -2.864  24.710  0.00  0.00    -0.082 Cl
ATOM     13  C7  UNL     1      14.988  -0.953  22.883  0.00  0.00    +0.045 A 
ATOM     14  C8  UNL     1      15.175   0.230  22.149  0.00  0.00    +0.050 A 
BRANCH   7  15
ATOM     15  C2  UNL     1      16.623   2.232  21.578  0.00  0.00    +0.341 C 
ATOM     16  O2  UNL     1      17.181   3.218  22.135  0.00  0.00    -0.245 OA
BRANCH  15  18
ATOM     17  C1  UNL     1      15.813   3.463  19.588  0.00  0.00    +0.280 C 
ATOM     18  O1  UNL     1      16.308   2.288  20.216  0.00  0.00    -0.464 OA
ENDBRANCH  15  18
ENDBRANCH   7  15
ENDBRANCH   1  14
BRANCH   4  19
ATOM     19  C10 UNL     1      11.352   3.275  20.875  0.00  0.00    +0.073 A 
ATOM     20  C11 UNL     1      11.662   4.547  20.357  0.00  0.00    +0.064 A 
ATOM     21  C12 UNL     1      10.786   5.620  20.549  0.00  0.00    +0.125 A 
ATOM     22  F1  UNL     1      11.091   6.842  20.047  0.00  0.00    -0.205 F 
ATOM     23  C13 UNL     1       9.590   5.431  21.247  0.00  0.00    +0.041 A 
ATOM     24  C14 UNL     1       9.266   4.169  21.748  0.00  0.00    +0.043 A 
ATOM     25  C15 UNL     1      10.138   3.092  21.558  0.00  0.00    +0.145 A 
ATOM     26  F2  UNL     1       9.806   1.872  22.054  0.00  0.00    -0.204 F 
ENDBRANCH   4  19
TORSDOF 4
ENDMDL
