REMARK  Name = /home/qwerty/github/datacon2025hack/step_04_hit_selection/docking/ligands/lig_123.pdb
REMARK  6 active torsions:
REMARK  status: ('A' for Active; 'I' for Inactive)
REMARK    1  A    between atoms: C1_1  and  O1_2
REMARK    2  A    between atoms: O1_2  and  C2_3
REMARK    3  A    between atoms: C2_3  and  C3_5
REMARK    4  A    between atoms: C6_8  and  N1_9
REMARK    5  A    between atoms: N2_12  and  C8_13
REMARK    6  A    between atoms: C12_18  and  C13_19
REMARK                            x       y       z     vdW  Elec       q    Type
REMARK                         _______ _______ _______ _____ _____    ______ ____
ROOT
ATOM      1  N1  UNL     1      -0.988   0.489   1.217  0.00  0.00    -0.269 N 
ATOM      2  C7  UNL     1       0.192   0.120   0.486  0.00  0.00    +0.308 C 
ATOM      3  O3  UNL     1       0.095  -0.513  -0.601  0.00  0.00    -0.252 OA
ATOM      4  N2  UNL     1       1.482   0.478   1.003  0.00  0.00    -0.267 N 
ATOM      5  H6  UNL     1      -0.868   0.765   2.218  0.00  0.00    +0.156 HD
ATOM      6  H7  UNL     1       1.518   1.217   1.741  0.00  0.00    +0.156 HD
ENDROOT
BRANCH   4   7
ATOM      7  C8  UNL     1       2.727  -0.023   0.489  0.00  0.00    +0.071 A 
ATOM      8  C9  UNL     1       2.857  -1.343  -0.012  0.00  0.00    +0.138 A 
ATOM      9  N3  UNL     1       4.061  -1.799  -0.466  0.00  0.00    -0.234 NA
ATOM     10  C10 UNL     1       5.130  -0.968  -0.425  0.00  0.00    +0.156 A 
ATOM     11  C11 UNL     1       6.421  -1.226  -0.815  0.00  0.00    +0.082 A 
ATOM     12  C12 UNL     1       7.074  -0.026  -0.528  0.00  0.00    +0.168 A 
ATOM     13  N4  UNL     1       6.215   0.870   0.018  0.00  0.00    -0.161 NA
ATOM     14  N5  UNL     1       5.037   0.272   0.061  0.00  0.00    -0.219 N 
ATOM     15  C14 UNL     1       3.877   0.786   0.534  0.00  0.00    +0.139 A 
BRANCH  12  16
ATOM     16  C13 UNL     1       8.539   0.224  -0.697  0.00  0.00    +0.436 C 
ATOM     17  F1  UNL     1       8.981  -0.340  -1.880  0.00  0.00    -0.164 F 
ATOM     18  F2  UNL     1       9.225  -0.340   0.362  0.00  0.00    -0.164 F 
ATOM     19  F3  UNL     1       8.787   1.584  -0.727  0.00  0.00    -0.164 F 
ENDBRANCH  12  16
ENDBRANCH   4   7
BRANCH   1  23
ATOM     20  C3  UNL     1      -4.979   0.220  -0.251  0.00  0.00    +0.059 A 
ATOM     21  C4  UNL     1      -3.926   0.548  -1.124  0.00  0.00    +0.017 A 
ATOM     22  C5  UNL     1      -2.613   0.635  -0.651  0.00  0.00    +0.024 A 
ATOM     23  C6  UNL     1      -2.326   0.382   0.701  0.00  0.00    +0.035 A 
ATOM     24  C15 UNL     1      -3.378   0.079   1.576  0.00  0.00    +0.024 A 
ATOM     25  C16 UNL     1      -4.691  -0.009   1.105  0.00  0.00    +0.017 A 
BRANCH  20  26
ATOM     26  C2  UNL     1      -6.370   0.126  -0.746  0.00  0.00    +0.339 C 
ATOM     27  O2  UNL     1      -6.625   0.335  -1.964  0.00  0.00    -0.245 OA
BRANCH  26  29
ATOM     28  C1  UNL     1      -8.762  -0.304  -0.272  0.00  0.00    +0.280 C 
ATOM     29  O1  UNL     1      -7.405  -0.197   0.140  0.00  0.00    -0.464 OA
ENDBRANCH  26  29
ENDBRANCH  20  26
ENDBRANCH   1  23
TORSDOF 5
