REMARK  Name = /home/qwerty/github/datacon2025hack/step_04_hit_selection/docking/ligands/lig_155.pdb
REMARK  5 active torsions:
REMARK  status: ('A' for Active; 'I' for Inactive)
REMARK    1  A    between atoms: C1_1  and  N1_2
REMARK    2  A    between atoms: N1_2  and  C2_3
REMARK    3  A    between atoms: C3_4  and  C4_6
REMARK    4  A    between atoms: C4_6  and  C5_7
REMARK    5  A    between atoms: C8_12  and  N3_13
REMARK                            x       y       z     vdW  Elec       q    Type
REMARK                         _______ _______ _______ _____ _____    ______ ____
ROOT
ATOM      1  C5  UNL     1       1.112  -1.470  -0.858  0.00  0.00    +0.231 C 
ATOM      2  O2  UNL     1       0.954  -2.282  -1.811  0.00  0.00    -0.274 OA
ATOM      3  N2  UNL     1      -0.029  -0.746  -0.346  0.00  0.00    -0.301 N 
ATOM      4  C6  UNL     1       0.046   0.052   0.887  0.00  0.00    +0.109 C 
ATOM      5  C7  UNL     1      -1.251  -0.087   1.694  0.00  0.00    +0.038 C 
ATOM      6  C8  UNL     1      -2.552   0.146   0.865  0.00  0.00    +0.060 C 
ATOM      7  C12 UNL     1      -2.245   0.342  -0.638  0.00  0.00    +0.038 C 
ATOM      8  C13 UNL     1      -1.260  -0.715  -1.150  0.00  0.00    +0.109 C 
ENDROOT
BRANCH   6   9
ATOM      9  N3  UNL     1      -3.289   1.326   1.384  0.00  0.00    -0.299 NA
ATOM     10  C9  UNL     1      -3.845   1.099   2.729  0.00  0.00    +0.086 C 
ATOM     11  C10 UNL     1      -5.278   1.199   2.251  0.00  0.00    +0.031 C 
ATOM     12  C11 UNL     1      -4.671   1.405   0.879  0.00  0.00    +0.086 C 
ENDBRANCH   6   9
BRANCH   1  13
ATOM     13  C4  UNL     1       2.505  -1.239  -0.327  0.00  0.00    +0.123 C 
ATOM     14  C14 UNL     1       2.867  -2.013   0.940  0.00  0.00    +0.027 C 
ATOM     15  C15 UNL     1       3.476  -2.417  -0.391  0.00  0.00    +0.027 C 
BRANCH  13  19
ATOM     16  C1  UNL     1       4.287   1.895  -1.833  0.00  0.00    +0.131 C 
ATOM     17  N1  UNL     1       3.612   0.595  -1.763  0.00  0.00    -0.307 N 
ATOM     18  C2  UNL     1       3.413  -0.196  -2.982  0.00  0.00    +0.131 C 
ATOM     19  C3  UNL     1       3.128   0.126  -0.486  0.00  0.00    +0.230 C 
ATOM     20  O1  UNL     1       3.201   0.878   0.524  0.00  0.00    -0.274 OA
ENDBRANCH  13  19
ENDBRANCH   1  13
TORSDOF 3
