REMARK  Name = /home/qwerty/github/datacon2025hack/step_04_hit_selection/docking/ligands/lig_272.pdb
REMARK  8 active torsions:
REMARK  status: ('A' for Active; 'I' for Inactive)
REMARK    1  A    between atoms: C1_1  and  C2_2
REMARK    2  A    between atoms: C2_2  and  N1_3
REMARK    3  A    between atoms: N1_3  and  C3_4
REMARK    4  A    between atoms: N1_3  and  C5_6
REMARK    5  A    between atoms: C3_4  and  C4_5
REMARK    6  A    between atoms: C8_9  and  C9_10
REMARK    7  A    between atoms: C10_13  and  C11_14
REMARK    8  A    between atoms: N3_20  and  C17_21
REMARK                            x       y       z     vdW  Elec       q    Type
REMARK                         _______ _______ _______ _____ _____    ______ ____
ROOT
ATOM      1  C9  UNL     1       0.129  -0.680   0.083  0.00  0.00    +0.202 A 
ATOM      2  N2  UNL     1       0.704  -1.891  -0.063  0.00  0.00    -0.056 NA
ATOM      3  O1  UNL     1       1.977  -1.651  -0.138  0.00  0.00    -0.332 OA
ATOM      4  C10 UNL     1       2.192  -0.361  -0.045  0.00  0.00    +0.259 A 
ATOM      5  N4  UNL     1       1.038   0.319   0.099  0.00  0.00    -0.187 NA
ENDROOT
BRANCH   4   6
ATOM      6  C11 UNL     1       3.527   0.265  -0.093  0.00  0.00    +0.041 A 
ATOM      7  C12 UNL     1       3.665   1.670   0.014  0.00  0.00    +0.013 A 
ATOM      8  C13 UNL     1       4.933   2.270  -0.035  0.00  0.00    +0.006 A 
ATOM      9  C14 UNL     1       6.053   1.454  -0.186  0.00  0.00    -0.017 A 
ATOM     10  C15 UNL     1       5.928   0.083  -0.287  0.00  0.00    +0.040 A 
ATOM     11  C16 UNL     1       4.677  -0.538  -0.248  0.00  0.00    +0.037 A 
ATOM     12  N3  UNL     1       7.192  -0.549  -0.441  0.00  0.00    -0.274 N 
ATOM     13  C17 UNL     1       7.426  -1.897  -0.946  0.00  0.00    +0.138 C 
ATOM     14  C18 UNL     1       8.126   0.529  -0.491  0.00  0.00    +0.224 C 
ATOM     15  O2  UNL     1       9.358   0.365  -0.699  0.00  0.00    -0.275 OA
ATOM     16  C19 UNL     1       7.484   1.869  -0.295  0.00  0.00    +0.133 C 
ENDBRANCH   4   6
BRANCH   1  20
ATOM     17  C5  UNL     1      -4.116  -0.066   0.452  0.00  0.00    +0.030 A 
ATOM     18  C6  UNL     1      -3.589  -1.361   0.304  0.00  0.00    +0.024 A 
ATOM     19  C7  UNL     1      -2.211  -1.561   0.184  0.00  0.00    +0.013 A 
ATOM     20  C8  UNL     1      -1.329  -0.469   0.211  0.00  0.00    +0.023 A 
ATOM     21  C20 UNL     1      -1.851   0.825   0.361  0.00  0.00    +0.013 A 
ATOM     22  C21 UNL     1      -3.229   1.025   0.481  0.00  0.00    +0.024 A 
BRANCH  17  23
ATOM     23  N1  UNL     1      -5.544   0.138   0.565  0.00  0.00    -0.330 N 
BRANCH  23  25
ATOM     24  C1  UNL     1      -6.066   1.056  -1.667  0.00  0.00    +0.024 C 
ATOM     25  C2  UNL     1      -6.208   1.236  -0.159  0.00  0.00    +0.102 C 
ENDBRANCH  23  25
BRANCH  23  26
ATOM     26  C3  UNL     1      -6.355  -0.751   1.411  0.00  0.00    +0.102 C 
ATOM     27  C4  UNL     1      -7.215  -1.683   0.560  0.00  0.00    +0.024 C 
ENDBRANCH  23  26
ENDBRANCH  17  23
ENDBRANCH   1  20
TORSDOF 5
