MODEL 1
REMARK VINA RESULT:    -8.827      0.000      0.000
REMARK INTER + INTRA:         -12.316
REMARK INTER:                 -11.406
REMARK INTRA:                  -0.909
REMARK UNBOUND:                -0.909
REMARK  Name = /home/qwerty/github/datacon2025hack/step_04_hit_selection/docking/ligands/lig_91.pdb
REMARK  6 active torsions:
REMARK  status: ('A' for Active; 'I' for Inactive)
REMARK    1  A    between atoms: C1_1  and  C2_2
REMARK    2  A    between atoms: C6_6  and  N1_7
REMARK    3  A    between atoms: N3_13  and  C10_14
REMARK    4  A    between atoms: C14_19  and  N4_20
REMARK    5  A    between atoms: C15_21  and  C16_23
REMARK    6  A    between atoms: C20_27  and  C21_28
REMARK                            x       y       z     vdW  Elec       q    Type
REMARK                         _______ _______ _______ _____ _____    ______ ____
ROOT
ATOM      1  C10 UNL     1       9.724   7.502  21.704  0.00  0.00    +0.032 A 
ATOM      2  C11 UNL     1       9.349   8.455  20.743  0.00  0.00    +0.024 A 
ATOM      3  C12 UNL     1       8.623   9.589  21.113  0.00  0.00    +0.023 A 
ATOM      4  C13 UNL     1       8.268   9.800  22.448  0.00  0.00    +0.062 A 
ATOM      5 CL1  UNL     1       7.271  11.195  22.841  0.00  0.00    -0.082 Cl
ATOM      6  C14 UNL     1       8.657   8.866  23.430  0.00  0.00    +0.054 A 
ATOM      7  C23 UNL     1       9.359   7.715  23.048  0.00  0.00    +0.048 A 
ENDROOT
BRANCH   1  14
ATOM      8  N1  UNL     1      13.940   2.557  20.448  0.00  0.00    -0.269 N 
ATOM      9  C7  UNL     1      12.619   2.663  21.007  0.00  0.00    +0.307 C 
ATOM     10  O1  UNL     1      12.082   1.652  21.537  0.00  0.00    -0.252 OA
ATOM     11  N2  UNL     1      11.880   3.897  20.920  0.00  0.00    -0.282 N 
ATOM     12  C8  UNL     1      10.417   3.864  21.071  0.00  0.00    +0.128 C 
ATOM     13  C9  UNL     1       9.775   5.195  20.669  0.00  0.00    +0.124 C 
ATOM     14  N3  UNL     1      10.463   6.321  21.318  0.00  0.00    -0.327 N 
ATOM     15  C24 UNL     1      11.928   6.303  21.458  0.00  0.00    +0.124 C 
ATOM     16  C25 UNL     1      12.565   5.168  20.649  0.00  0.00    +0.128 C 
ATOM     17  H7  UNL     1      14.185   3.185  19.650  0.00  0.00    +0.156 HD
BRANCH   8  23
ATOM     18  C1  UNL     1      16.898  -1.218  19.135  0.00  0.00    +0.044 C 
ATOM     19  C2  UNL     1      16.336  -0.312  20.190  0.00  0.00    -0.049 A 
ATOM     20  C3  UNL     1      16.796  -0.402  21.512  0.00  0.00    +0.003 A 
ATOM     21  C4  UNL     1      16.309   0.472  22.487  0.00  0.00    +0.002 A 
ATOM     22  C5  UNL     1      15.363   1.444  22.148  0.00  0.00    +0.023 A 
ATOM     23  C6  UNL     1      14.889   1.545  20.828  0.00  0.00    +0.035 A 
ATOM     24  C26 UNL     1      15.399   0.678  19.850  0.00  0.00    +0.026 A 
ENDBRANCH   8  23
ENDBRANCH   1  14
BRANCH   6  25
ATOM     25  N4  UNL     1       8.315   9.047  24.813  0.00  0.00    -0.280 N 
ATOM     26  C15 UNL     1       9.059   9.919  25.679  0.00  0.00    +0.248 C 
ATOM     27  O2  UNL     1      10.190  10.343  25.312  0.00  0.00    -0.270 OA
ATOM     28  H14 UNL     1       7.658   8.359  25.245  0.00  0.00    +0.155 HD
BRANCH  26  29
ATOM     29  C16 UNL     1       8.532  10.306  27.011  0.00  0.00    +0.038 A 
ATOM     30  C17 UNL     1       8.100   9.319  27.913  0.00  0.00    +0.013 A 
ATOM     31  C18 UNL     1       7.625   9.673  29.177  0.00  0.00    +0.001 A 
ATOM     32  C19 UNL     1       7.572  11.015  29.558  0.00  0.00    +0.012 A 
ATOM     33  C20 UNL     1       7.982  12.021  28.668  0.00  0.00    +0.056 A 
ATOM     34  C22 UNL     1       8.485  11.656  27.407  0.00  0.00    +0.025 A 
BRANCH  33  35
ATOM     35  C21 UNL     1       7.979  13.467  29.101  0.00  0.00    +0.417 C 
ATOM     36  F1  UNL     1       9.196  13.812  29.664  0.00  0.00    -0.166 F 
ATOM     37  F2  UNL     1       7.754  14.300  28.019  0.00  0.00    -0.166 F 
ATOM     38  F3  UNL     1       6.980  13.662  30.034  0.00  0.00    -0.166 F 
ENDBRANCH  33  35
ENDBRANCH  26  29
ENDBRANCH   6  25
TORSDOF 5
ENDMDL
MODEL 2
REMARK VINA RESULT:    -8.497      7.542     12.656
REMARK INTER + INTRA:         -11.890
REMARK INTER:                 -11.066
REMARK INTRA:                  -0.824
REMARK UNBOUND:                -0.909
REMARK  Name = /home/qwerty/github/datacon2025hack/step_04_hit_selection/docking/ligands/lig_91.pdb
REMARK  6 active torsions:
REMARK  status: ('A' for Active; 'I' for Inactive)
REMARK    1  A    between atoms: C1_1  and  C2_2
REMARK    2  A    between atoms: C6_6  and  N1_7
REMARK    3  A    between atoms: N3_13  and  C10_14
REMARK    4  A    between atoms: C14_19  and  N4_20
REMARK    5  A    between atoms: C15_21  and  C16_23
REMARK    6  A    between atoms: C20_27  and  C21_28
REMARK                            x       y       z     vdW  Elec       q    Type
REMARK                         _______ _______ _______ _____ _____    ______ ____
ROOT
ATOM      1  C10 UNL     1      15.147   0.080  23.217  0.00  0.00    +0.032 A 
ATOM      2  C11 UNL     1      15.033  -1.300  23.457  0.00  0.00    +0.024 A 
ATOM      3  C12 UNL     1      16.085  -2.008  24.041  0.00  0.00    +0.023 A 
ATOM      4  C13 UNL     1      17.265  -1.353  24.407  0.00  0.00    +0.062 A 
ATOM      5 CL1  UNL     1      18.593  -2.312  25.048  0.00  0.00    -0.082 Cl
ATOM      6  C14 UNL     1      17.388   0.035  24.195  0.00  0.00    +0.054 A 
ATOM      7  C23 UNL     1      16.340   0.735  23.580  0.00  0.00    +0.048 A 
ENDROOT
BRANCH   1  14
ATOM      8  N1  UNL     1       9.879   3.649  21.399  0.00  0.00    -0.269 N 
ATOM      9  C7  UNL     1      11.278   3.642  21.066  0.00  0.00    +0.307 C 
ATOM     10  O1  UNL     1      11.759   4.574  20.365  0.00  0.00    -0.252 OA
ATOM     11  N2  UNL     1      12.127   2.552  21.479  0.00  0.00    -0.282 N 
ATOM     12  C8  UNL     1      13.395   2.328  20.769  0.00  0.00    +0.128 C 
ATOM     13  C9  UNL     1      14.022   0.981  21.139  0.00  0.00    +0.124 C 
ATOM     14  N3  UNL     1      14.064   0.809  22.598  0.00  0.00    -0.327 N 
ATOM     15  C24 UNL     1      12.934   1.268  23.423  0.00  0.00    +0.124 C 
ATOM     16  C25 UNL     1      11.722   1.653  22.567  0.00  0.00    +0.128 C 
ATOM     17  H7  UNL     1       9.407   2.729  21.549  0.00  0.00    +0.156 HD
BRANCH   8  23
ATOM     18  C1  UNL     1       5.690   5.937  20.005  0.00  0.00    +0.044 C 
ATOM     19  C2  UNL     1       7.014   5.964  20.709  0.00  0.00    -0.049 A 
ATOM     20  C3  UNL     1       7.409   7.105  21.423  0.00  0.00    +0.003 A 
ATOM     21  C4  UNL     1       8.621   7.115  22.118  0.00  0.00    +0.002 A 
ATOM     22  C5  UNL     1       9.444   5.986  22.109  0.00  0.00    +0.023 A 
ATOM     23  C6  UNL     1       9.064   4.835  21.396  0.00  0.00    +0.035 A 
ATOM     24  C26 UNL     1       7.836   4.825  20.718  0.00  0.00    +0.026 A 
ENDBRANCH   8  23
ENDBRANCH   1  14
BRANCH   6  25
ATOM     25  N4  UNL     1      18.581   0.746  24.559  0.00  0.00    -0.280 N 
ATOM     26  C15 UNL     1      18.871   1.113  25.918  0.00  0.00    +0.248 C 
ATOM     27  O2  UNL     1      17.957   1.051  26.786  0.00  0.00    -0.270 OA
ATOM     28  H14 UNL     1      19.129   1.200  23.794  0.00  0.00    +0.155 HD
BRANCH  26  29
ATOM     29  C16 UNL     1      20.219   1.590  26.310  0.00  0.00    +0.038 A 
ATOM     30  C17 UNL     1      20.832   2.638  25.600  0.00  0.00    +0.013 A 
ATOM     31  C18 UNL     1      22.090   3.109  25.978  0.00  0.00    +0.001 A 
ATOM     32  C19 UNL     1      22.757   2.541  27.065  0.00  0.00    +0.012 A 
ATOM     33  C20 UNL     1      22.174   1.482  27.780  0.00  0.00    +0.056 A 
ATOM     34  C22 UNL     1      20.894   1.030  27.412  0.00  0.00    +0.025 A 
BRANCH  33  35
ATOM     35  C21 UNL     1      22.867   0.908  28.991  0.00  0.00    +0.417 C 
ATOM     36  F1  UNL     1      24.242   1.004  28.860  0.00  0.00    -0.166 F 
ATOM     37  F2  UNL     1      22.496   1.590  30.136  0.00  0.00    -0.166 F 
ATOM     38  F3  UNL     1      22.520  -0.422  29.127  0.00  0.00    -0.166 F 
ENDBRANCH  33  35
ENDBRANCH  26  29
ENDBRANCH   6  25
TORSDOF 5
ENDMDL
MODEL 3
REMARK VINA RESULT:    -8.452     10.741     13.257
REMARK INTER + INTRA:         -11.833
REMARK INTER:                 -10.873
REMARK INTRA:                  -0.960
REMARK UNBOUND:                -0.909
REMARK  Name = /home/qwerty/github/datacon2025hack/step_04_hit_selection/docking/ligands/lig_91.pdb
REMARK  6 active torsions:
REMARK  status: ('A' for Active; 'I' for Inactive)
REMARK    1  A    between atoms: C1_1  and  C2_2
REMARK    2  A    between atoms: C6_6  and  N1_7
REMARK    3  A    between atoms: N3_13  and  C10_14
REMARK    4  A    between atoms: C14_19  and  N4_20
REMARK    5  A    between atoms: C15_21  and  C16_23
REMARK    6  A    between atoms: C20_27  and  C21_28
REMARK                            x       y       z     vdW  Elec       q    Type
REMARK                         _______ _______ _______ _____ _____    ______ ____
ROOT
ATOM      1  C10 UNL     1      14.450  12.053  35.244  0.00  0.00    +0.032 A 
ATOM      2  C11 UNL     1      13.870  12.550  36.423  0.00  0.00    +0.024 A 
ATOM      3  C12 UNL     1      12.615  13.162  36.393  0.00  0.00    +0.023 A 
ATOM      4  C13 UNL     1      11.911  13.280  35.192  0.00  0.00    +0.062 A 
ATOM      5 CL1  UNL     1      10.380  14.146  35.198  0.00  0.00    -0.082 Cl
ATOM      6  C14 UNL     1      12.467  12.765  34.003  0.00  0.00    +0.054 A 
ATOM      7  C23 UNL     1      13.740  12.179  34.034  0.00  0.00    +0.048 A 
ENDROOT
BRANCH   1  14
ATOM      8  N1  UNL     1      20.317   9.139  34.301  0.00  0.00    -0.269 N 
ATOM      9  C7  UNL     1      19.855  10.318  34.982  0.00  0.00    +0.307 C 
ATOM     10  O1  UNL     1      20.691  11.144  35.440  0.00  0.00    -0.252 OA
ATOM     11  N2  UNL     1      18.446  10.541  35.194  0.00  0.00    -0.282 N 
ATOM     12  C8  UNL     1      18.023  11.471  36.251  0.00  0.00    +0.128 C 
ATOM     13  C9  UNL     1      16.519  11.371  36.527  0.00  0.00    +0.124 C 
ATOM     14  N3  UNL     1      15.755  11.432  35.273  0.00  0.00    -0.327 N 
ATOM     15  C24 UNL     1      16.260  10.747  34.072  0.00  0.00    +0.124 C 
ATOM     16  C25 UNL     1      17.442   9.826  34.394  0.00  0.00    +0.128 C 
ATOM     17  H7  UNL     1      19.716   8.285  34.340  0.00  0.00    +0.156 HD
BRANCH   8  23
ATOM     18  C1  UNL     1      23.428  10.376  30.625  0.00  0.00    +0.044 C 
ATOM     19  C2  UNL     1      23.144   9.623  31.890  0.00  0.00    -0.049 A 
ATOM     20  C3  UNL     1      24.162   8.886  32.514  0.00  0.00    +0.003 A 
ATOM     21  C4  UNL     1      23.913   8.222  33.717  0.00  0.00    +0.002 A 
ATOM     22  C5  UNL     1      22.649   8.293  34.309  0.00  0.00    +0.023 A 
ATOM     23  C6  UNL     1      21.617   9.024  33.696  0.00  0.00    +0.035 A 
ATOM     24  C26 UNL     1      21.880   9.706  32.498  0.00  0.00    +0.026 A 
ENDBRANCH   8  23
ENDBRANCH   1  14
BRANCH   6  25
ATOM     25  N4  UNL     1      11.775  12.862  32.749  0.00  0.00    -0.280 N 
ATOM     26  C15 UNL     1      11.823  14.045  31.935  0.00  0.00    +0.248 C 
ATOM     27  O2  UNL     1      12.260  15.121  32.429  0.00  0.00    -0.270 OA
ATOM     28  H14 UNL     1      11.043  12.146  32.541  0.00  0.00    +0.155 HD
BRANCH  26  29
ATOM     29  C16 UNL     1      11.342  14.029  30.532  0.00  0.00    +0.038 A 
ATOM     30  C17 UNL     1      12.158  14.523  29.500  0.00  0.00    +0.013 A 
ATOM     31  C18 UNL     1      11.721  14.489  28.174  0.00  0.00    +0.001 A 
ATOM     32  C19 UNL     1      10.466  13.966  27.860  0.00  0.00    +0.012 A 
ATOM     33  C20 UNL     1       9.625  13.482  28.875  0.00  0.00    +0.056 A 
ATOM     34  C22 UNL     1      10.081  13.493  30.206  0.00  0.00    +0.025 A 
BRANCH  33  35
ATOM     35  C21 UNL     1       8.294  12.862  28.530  0.00  0.00    +0.417 C 
ATOM     36  F1  UNL     1       7.562  12.603  29.675  0.00  0.00    -0.166 F 
ATOM     37  F2  UNL     1       7.552  13.713  27.728  0.00  0.00    -0.166 F 
ATOM     38  F3  UNL     1       8.504  11.677  27.852  0.00  0.00    -0.166 F 
ENDBRANCH  33  35
ENDBRANCH  26  29
ENDBRANCH   6  25
TORSDOF 5
ENDMDL
MODEL 4
REMARK VINA RESULT:    -8.414      7.441     12.682
REMARK INTER + INTRA:         -11.783
REMARK INTER:                 -10.779
REMARK INTRA:                  -1.004
REMARK UNBOUND:                -0.909
REMARK  Name = /home/qwerty/github/datacon2025hack/step_04_hit_selection/docking/ligands/lig_91.pdb
REMARK  6 active torsions:
REMARK  status: ('A' for Active; 'I' for Inactive)
REMARK    1  A    between atoms: C1_1  and  C2_2
REMARK    2  A    between atoms: C6_6  and  N1_7
REMARK    3  A    between atoms: N3_13  and  C10_14
REMARK    4  A    between atoms: C14_19  and  N4_20
REMARK    5  A    between atoms: C15_21  and  C16_23
REMARK    6  A    between atoms: C20_27  and  C21_28
REMARK                            x       y       z     vdW  Elec       q    Type
REMARK                         _______ _______ _______ _____ _____    ______ ____
ROOT
ATOM      1  C10 UNL     1      15.379   2.027  23.229  0.00  0.00    +0.032 A 
ATOM      2  C11 UNL     1      14.798   0.769  22.995  0.00  0.00    +0.024 A 
ATOM      3  C12 UNL     1      15.305  -0.374  23.616  0.00  0.00    +0.023 A 
ATOM      4  C13 UNL     1      16.392  -0.284  24.489  0.00  0.00    +0.062 A 
ATOM      5 CL1  UNL     1      17.050  -1.769  25.166  0.00  0.00    -0.082 Cl
ATOM      6  C14 UNL     1      16.973   0.973  24.755  0.00  0.00    +0.054 A 
ATOM      7  C23 UNL     1      16.479   2.113  24.105  0.00  0.00    +0.048 A 
ENDROOT
BRANCH   1  14
ATOM      8  N1  UNL     1      12.043   7.072  20.543  0.00  0.00    -0.269 N 
ATOM      9  C7  UNL     1      13.165   6.942  21.433  0.00  0.00    +0.307 C 
ATOM     10  O1  UNL     1      13.630   7.964  22.006  0.00  0.00    -0.252 OA
ATOM     11  N2  UNL     1      13.798   5.662  21.636  0.00  0.00    -0.282 N 
ATOM     12  C8  UNL     1      15.171   5.622  22.160  0.00  0.00    +0.128 C 
ATOM     13  C9  UNL     1      15.783   4.223  22.043  0.00  0.00    +0.124 C 
ATOM     14  N3  UNL     1      14.863   3.207  22.574  0.00  0.00    -0.327 N 
ATOM     15  C24 UNL     1      13.417   3.326  22.326  0.00  0.00    +0.124 C 
ATOM     16  C25 UNL     1      13.102   4.415  21.294  0.00  0.00    +0.128 C 
ATOM     17  H7  UNL     1      11.958   6.387  19.759  0.00  0.00    +0.156 HD
BRANCH   8  23
ATOM     18  C1  UNL     1       8.001   9.164  22.546  0.00  0.00    +0.044 C 
ATOM     19  C2  UNL     1       9.129   9.198  21.558  0.00  0.00    -0.049 A 
ATOM     20  C3  UNL     1       9.319  10.325  20.745  0.00  0.00    +0.003 A 
ATOM     21  C4  UNL     1      10.396  10.378  19.858  0.00  0.00    +0.002 A 
ATOM     22  C5  UNL     1      11.293   9.310  19.778  0.00  0.00    +0.023 A 
ATOM     23  C6  UNL     1      11.115   8.171  20.583  0.00  0.00    +0.035 A 
ATOM     24  C26 UNL     1      10.043   8.134  21.488  0.00  0.00    +0.026 A 
ENDBRANCH   8  23
ENDBRANCH   1  14
BRANCH   6  25
ATOM     25  N4  UNL     1      18.089   1.109  25.648  0.00  0.00    -0.280 N 
ATOM     26  C15 UNL     1      19.450   1.036  25.193  0.00  0.00    +0.248 C 
ATOM     27  O2  UNL     1      19.696   0.586  24.040  0.00  0.00    -0.270 OA
ATOM     28  H14 UNL     1      17.903   1.031  26.673  0.00  0.00    +0.155 HD
BRANCH  26  29
ATOM     29  C16 UNL     1      20.572   1.453  26.068  0.00  0.00    +0.038 A 
ATOM     30  C17 UNL     1      21.294   2.624  25.781  0.00  0.00    +0.013 A 
ATOM     31  C18 UNL     1      22.336   3.037  26.613  0.00  0.00    +0.001 A 
ATOM     32  C19 UNL     1      22.675   2.287  27.741  0.00  0.00    +0.012 A 
ATOM     33  C20 UNL     1      21.981   1.103  28.040  0.00  0.00    +0.056 A 
ATOM     34  C22 UNL     1      20.913   0.708  27.213  0.00  0.00    +0.025 A 
BRANCH  33  35
ATOM     35  C21 UNL     1      22.308   0.324  29.289  0.00  0.00    +0.417 C 
ATOM     36  F1  UNL     1      21.171   0.120  30.052  0.00  0.00    -0.166 F 
ATOM     37  F2  UNL     1      22.838  -0.913  28.969  0.00  0.00    -0.166 F 
ATOM     38  F3  UNL     1      23.231   1.029  30.038  0.00  0.00    -0.166 F 
ENDBRANCH  33  35
ENDBRANCH  26  29
ENDBRANCH   6  25
TORSDOF 5
ENDMDL
MODEL 5
REMARK VINA RESULT:    -8.381     10.774     13.729
REMARK INTER + INTRA:         -11.741
REMARK INTER:                 -10.812
REMARK INTRA:                  -0.928
REMARK UNBOUND:                -0.909
REMARK  Name = /home/qwerty/github/datacon2025hack/step_04_hit_selection/docking/ligands/lig_91.pdb
REMARK  6 active torsions:
REMARK  status: ('A' for Active; 'I' for Inactive)
REMARK    1  A    between atoms: C1_1  and  C2_2
REMARK    2  A    between atoms: C6_6  and  N1_7
REMARK    3  A    between atoms: N3_13  and  C10_14
REMARK    4  A    between atoms: C14_19  and  N4_20
REMARK    5  A    between atoms: C15_21  and  C16_23
REMARK    6  A    between atoms: C20_27  and  C21_28
REMARK                            x       y       z     vdW  Elec       q    Type
REMARK                         _______ _______ _______ _____ _____    ______ ____
ROOT
ATOM      1  C10 UNL     1      14.477  12.070  35.769  0.00  0.00    +0.032 A 
ATOM      2  C11 UNL     1      13.489  12.326  36.735  0.00  0.00    +0.024 A 
ATOM      3  C12 UNL     1      12.290  12.946  36.377  0.00  0.00    +0.023 A 
ATOM      4  C13 UNL     1      12.049  13.312  35.050  0.00  0.00    +0.062 A 
ATOM      5 CL1  UNL     1      10.564  14.178  34.675  0.00  0.00    -0.082 Cl
ATOM      6  C14 UNL     1      13.019  13.043  34.063  0.00  0.00    +0.054 A 
ATOM      7  C23 UNL     1      14.233  12.447  34.434  0.00  0.00    +0.048 A 
ENDROOT
BRANCH   1  14
ATOM      8  N1  UNL     1      19.827   8.345  36.909  0.00  0.00    -0.269 N 
ATOM      9  C7  UNL     1      19.589   9.678  36.424  0.00  0.00    +0.307 C 
ATOM     10  O1  UNL     1      20.545  10.352  35.953  0.00  0.00    -0.252 OA
ATOM     11  N2  UNL     1      18.279  10.273  36.522  0.00  0.00    -0.282 N 
ATOM     12  C8  UNL     1      18.155  11.737  36.457  0.00  0.00    +0.128 C 
ATOM     13  C9  UNL     1      16.754  12.207  36.860  0.00  0.00    +0.124 C 
ATOM     14  N3  UNL     1      15.724  11.442  36.143  0.00  0.00    -0.327 N 
ATOM     15  C24 UNL     1      15.905   9.999  35.919  0.00  0.00    +0.124 C 
ATOM     16  C25 UNL     1      17.086   9.440  36.719  0.00  0.00    +0.128 C 
ATOM     17  H7  UNL     1      19.214   7.986  37.675  0.00  0.00    +0.156 HD
BRANCH   8  23
ATOM     18  C1  UNL     1      21.960   5.440  33.483  0.00  0.00    +0.044 C 
ATOM     19  C2  UNL     1      21.992   6.104  34.827  0.00  0.00    -0.049 A 
ATOM     20  C3  UNL     1      23.133   6.001  35.636  0.00  0.00    +0.003 A 
ATOM     21  C4  UNL     1      23.183   6.658  36.868  0.00  0.00    +0.002 A 
ATOM     22  C5  UNL     1      22.098   7.425  37.299  0.00  0.00    +0.023 A 
ATOM     23  C6  UNL     1      20.944   7.536  36.502  0.00  0.00    +0.035 A 
ATOM     24  C26 UNL     1      20.910   6.891  35.256  0.00  0.00    +0.026 A 
ENDBRANCH   8  23
ENDBRANCH   1  14
BRANCH   6  25
ATOM     25  N4  UNL     1      12.809  13.400  32.689  0.00  0.00    -0.280 N 
ATOM     26  C15 UNL     1      11.897  12.683  31.841  0.00  0.00    +0.248 C 
ATOM     27  O2  UNL     1      11.457  11.560  32.210  0.00  0.00    -0.270 OA
ATOM     28  H14 UNL     1      13.501  14.044  32.243  0.00  0.00    +0.155 HD
BRANCH  26  29
ATOM     29  C16 UNL     1      11.488  13.230  30.524  0.00  0.00    +0.038 A 
ATOM     30  C17 UNL     1      12.430  13.871  29.701  0.00  0.00    +0.013 A 
ATOM     31  C18 UNL     1      12.058  14.367  28.451  0.00  0.00    +0.001 A 
ATOM     32  C19 UNL     1      10.741  14.234  28.005  0.00  0.00    +0.012 A 
ATOM     33  C20 UNL     1       9.777  13.613  28.815  0.00  0.00    +0.056 A 
ATOM     34  C22 UNL     1      10.165  13.091  30.062  0.00  0.00    +0.025 A 
BRANCH  33  35
ATOM     35  C21 UNL     1       8.370  13.418  28.309  0.00  0.00    +0.417 C 
ATOM     36  F1  UNL     1       7.456  13.540  29.342  0.00  0.00    -0.166 F 
ATOM     37  F2  UNL     1       8.060  14.363  27.347  0.00  0.00    -0.166 F 
ATOM     38  F3  UNL     1       8.256  12.157  27.754  0.00  0.00    -0.166 F 
ENDBRANCH  33  35
ENDBRANCH  26  29
ENDBRANCH   6  25
TORSDOF 5
ENDMDL
MODEL 6
REMARK VINA RESULT:    -8.329     13.631     18.493
REMARK INTER + INTRA:         -11.673
REMARK INTER:                 -10.823
REMARK INTRA:                  -0.849
REMARK UNBOUND:                -0.909
REMARK  Name = /home/qwerty/github/datacon2025hack/step_04_hit_selection/docking/ligands/lig_91.pdb
REMARK  6 active torsions:
REMARK  status: ('A' for Active; 'I' for Inactive)
REMARK    1  A    between atoms: C1_1  and  C2_2
REMARK    2  A    between atoms: C6_6  and  N1_7
REMARK    3  A    between atoms: N3_13  and  C10_14
REMARK    4  A    between atoms: C14_19  and  N4_20
REMARK    5  A    between atoms: C15_21  and  C16_23
REMARK    6  A    between atoms: C20_27  and  C21_28
REMARK                            x       y       z     vdW  Elec       q    Type
REMARK                         _______ _______ _______ _____ _____    ______ ____
ROOT
ATOM      1  C10 UNL     1      21.996   8.274  34.212  0.00  0.00    +0.032 A 
ATOM      2  C11 UNL     1      23.359   8.554  34.020  0.00  0.00    +0.024 A 
ATOM      3  C12 UNL     1      24.225   7.572  33.533  0.00  0.00    +0.023 A 
ATOM      4  C13 UNL     1      23.745   6.298  33.218  0.00  0.00    +0.062 A 
ATOM      5 CL1  UNL     1      24.897   5.072  32.702  0.00  0.00    -0.082 Cl
ATOM      6  C14 UNL     1      22.376   6.005  33.381  0.00  0.00    +0.054 A 
ATOM      7  C23 UNL     1      21.518   6.987  33.899  0.00  0.00    +0.048 A 
ENDROOT
BRANCH   1  14
ATOM      8  N1  UNL     1      17.628  13.063  35.549  0.00  0.00    -0.269 N 
ATOM      9  C7  UNL     1      17.866  11.728  36.029  0.00  0.00    +0.307 C 
ATOM     10  O1  UNL     1      17.031  11.183  36.800  0.00  0.00    -0.252 OA
ATOM     11  N2  UNL     1      19.077  11.027  35.681  0.00  0.00    -0.282 N 
ATOM     12  C8  UNL     1      19.511   9.896  36.515  0.00  0.00    +0.128 C 
ATOM     13  C9  UNL     1      20.939   9.458  36.180  0.00  0.00    +0.124 C 
ATOM     14  N3  UNL     1      21.104   9.286  34.729  0.00  0.00    -0.327 N 
ATOM     15  C24 UNL     1      20.461  10.231  33.802  0.00  0.00    +0.124 C 
ATOM     16  C25 UNL     1      19.890  11.451  34.533  0.00  0.00    +0.128 C 
ATOM     17  H7  UNL     1      18.458  13.658  35.326  0.00  0.00    +0.156 HD
BRANCH   8  23
ATOM     18  C1  UNL     1      14.673  16.910  36.642  0.00  0.00    +0.044 C 
ATOM     19  C2  UNL     1      14.871  15.553  36.035  0.00  0.00    -0.049 A 
ATOM     20  C3  UNL     1      13.816  14.927  35.353  0.00  0.00    +0.003 A 
ATOM     21  C4  UNL     1      14.011  13.684  34.747  0.00  0.00    +0.002 A 
ATOM     22  C5  UNL     1      15.259  13.059  34.812  0.00  0.00    +0.023 A 
ATOM     23  C6  UNL     1      16.326  13.671  35.495  0.00  0.00    +0.035 A 
ATOM     24  C26 UNL     1      16.129  14.930  36.083  0.00  0.00    +0.026 A 
ENDBRANCH   8  23
ENDBRANCH   1  14
BRANCH   6  25
ATOM     25  N4  UNL     1      21.843   4.710  33.065  0.00  0.00    -0.280 N 
ATOM     26  C15 UNL     1      21.568   4.302  31.715  0.00  0.00    +0.248 C 
ATOM     27  O2  UNL     1      21.540   5.168  30.798  0.00  0.00    -0.270 OA
ATOM     28  H14 UNL     1      21.437   4.148  33.847  0.00  0.00    +0.155 HD
BRANCH  26  29
ATOM     29  C16 UNL     1      21.288   2.883  31.388  0.00  0.00    +0.038 A 
ATOM     30  C17 UNL     1      20.271   2.189  32.067  0.00  0.00    +0.013 A 
ATOM     31  C18 UNL     1      19.985   0.860  31.747  0.00  0.00    +0.001 A 
ATOM     32  C19 UNL     1      20.710   0.204  30.751  0.00  0.00    +0.012 A 
ATOM     33  C20 UNL     1      21.742   0.870  30.070  0.00  0.00    +0.056 A 
ATOM     34  C22 UNL     1      22.007   2.217  30.376  0.00  0.00    +0.025 A 
BRANCH  33  35
ATOM     35  C21 UNL     1      22.486   0.181  28.953  0.00  0.00    +0.417 C 
ATOM     36  F1  UNL     1      23.797   0.619  28.894  0.00  0.00    -0.166 F 
ATOM     37  F2  UNL     1      22.499  -1.189  29.147  0.00  0.00    -0.166 F 
ATOM     38  F3  UNL     1      21.864   0.459  27.751  0.00  0.00    -0.166 F 
ENDBRANCH  33  35
ENDBRANCH  26  29
ENDBRANCH   6  25
TORSDOF 5
ENDMDL
MODEL 7
REMARK VINA RESULT:    -8.276     10.657     12.251
REMARK INTER + INTRA:         -11.604
REMARK INTER:                 -10.633
REMARK INTRA:                  -0.971
REMARK UNBOUND:                -0.909
REMARK  Name = /home/qwerty/github/datacon2025hack/step_04_hit_selection/docking/ligands/lig_91.pdb
REMARK  6 active torsions:
REMARK  status: ('A' for Active; 'I' for Inactive)
REMARK    1  A    between atoms: C1_1  and  C2_2
REMARK    2  A    between atoms: C6_6  and  N1_7
REMARK    3  A    between atoms: N3_13  and  C10_14
REMARK    4  A    between atoms: C14_19  and  N4_20
REMARK    5  A    between atoms: C15_21  and  C16_23
REMARK    6  A    between atoms: C20_27  and  C21_28
REMARK                            x       y       z     vdW  Elec       q    Type
REMARK                         _______ _______ _______ _____ _____    ______ ____
ROOT
ATOM      1  C10 UNL     1      14.658  15.125  27.691  0.00  0.00    +0.032 A 
ATOM      2  C11 UNL     1      13.738  14.868  26.660  0.00  0.00    +0.024 A 
ATOM      3  C12 UNL     1      12.404  14.578  26.955  0.00  0.00    +0.023 A 
ATOM      4  C13 UNL     1      11.961  14.549  28.280  0.00  0.00    +0.062 A 
ATOM      5 CL1  UNL     1      10.294  14.082  28.596  0.00  0.00    -0.082 Cl
ATOM      6  C14 UNL     1      12.863  14.828  29.326  0.00  0.00    +0.054 A 
ATOM      7  C23 UNL     1      14.208  15.088  29.025  0.00  0.00    +0.048 A 
ENDROOT
BRANCH   1  14
ATOM      8  N1  UNL     1      21.080  15.370  26.112  0.00  0.00    -0.269 N 
ATOM      9  C7  UNL     1      19.893  16.066  25.693  0.00  0.00    +0.307 C 
ATOM     10  O1  UNL     1      19.942  16.846  24.703  0.00  0.00    -0.252 OA
ATOM     11  N2  UNL     1      18.660  15.924  26.427  0.00  0.00    -0.282 N 
ATOM     12  C8  UNL     1      17.620  16.953  26.279  0.00  0.00    +0.128 C 
ATOM     13  C9  UNL     1      16.516  16.801  27.329  0.00  0.00    +0.124 C 
ATOM     14  N3  UNL     1      16.041  15.411  27.386  0.00  0.00    -0.327 N 
ATOM     15  C24 UNL     1      17.001  14.302  27.261  0.00  0.00    +0.124 C 
ATOM     16  C25 UNL     1      18.452  14.791  27.338  0.00  0.00    +0.128 C 
ATOM     17  H7  UNL     1      21.171  15.123  27.123  0.00  0.00    +0.156 HD
BRANCH   8  23
ATOM     18  C1  UNL     1      23.053  12.883  22.284  0.00  0.00    +0.044 C 
ATOM     19  C2  UNL     1      23.180  13.901  23.378  0.00  0.00    -0.049 A 
ATOM     20  C3  UNL     1      24.356  14.657  23.503  0.00  0.00    +0.003 A 
ATOM     21  C4  UNL     1      24.459  15.638  24.492  0.00  0.00    +0.002 A 
ATOM     22  C5  UNL     1      23.390  15.875  25.360  0.00  0.00    +0.023 A 
ATOM     23  C6  UNL     1      22.206  15.123  25.251  0.00  0.00    +0.035 A 
ATOM     24  C26 UNL     1      22.101  14.154  24.241  0.00  0.00    +0.026 A 
ENDBRANCH   8  23
ENDBRANCH   1  14
BRANCH   6  25
ATOM     25  N4  UNL     1      12.447  14.812  30.700  0.00  0.00    -0.280 N 
ATOM     26  C15 UNL     1      12.578  13.645  31.528  0.00  0.00    +0.248 C 
ATOM     27  O2  UNL     1      12.819  12.528  30.993  0.00  0.00    -0.270 OA
ATOM     28  H14 UNL     1      11.831  15.589  31.030  0.00  0.00    +0.155 HD
BRANCH  26  29
ATOM     29  C16 UNL     1      12.407  13.729  32.999  0.00  0.00    +0.038 A 
ATOM     30  C17 UNL     1      11.271  13.171  33.610  0.00  0.00    +0.013 A 
ATOM     31  C18 UNL     1      11.114  13.224  34.996  0.00  0.00    +0.001 A 
ATOM     32  C19 UNL     1      12.085  13.836  35.791  0.00  0.00    +0.012 A 
ATOM     33  C20 UNL     1      13.220  14.416  35.203  0.00  0.00    +0.056 A 
ATOM     34  C22 UNL     1      13.387  14.335  33.809  0.00  0.00    +0.025 A 
BRANCH  33  35
ATOM     35  C21 UNL     1      14.297  15.026  36.066  0.00  0.00    +0.417 C 
ATOM     36  F1  UNL     1      15.551  14.768  35.540  0.00  0.00    -0.166 F 
ATOM     37  F2  UNL     1      14.139  16.398  36.148  0.00  0.00    -0.166 F 
ATOM     38  F3  UNL     1      14.223  14.488  37.336  0.00  0.00    -0.166 F 
ENDBRANCH  33  35
ENDBRANCH  26  29
ENDBRANCH   6  25
TORSDOF 5
ENDMDL
MODEL 8
REMARK VINA RESULT:    -8.270     13.082     17.912
REMARK INTER + INTRA:         -11.597
REMARK INTER:                 -10.691
REMARK INTRA:                  -0.906
REMARK UNBOUND:                -0.909
REMARK  Name = /home/qwerty/github/datacon2025hack/step_04_hit_selection/docking/ligands/lig_91.pdb
REMARK  6 active torsions:
REMARK  status: ('A' for Active; 'I' for Inactive)
REMARK    1  A    between atoms: C1_1  and  C2_2
REMARK    2  A    between atoms: C6_6  and  N1_7
REMARK    3  A    between atoms: N3_13  and  C10_14
REMARK    4  A    between atoms: C14_19  and  N4_20
REMARK    5  A    between atoms: C15_21  and  C16_23
REMARK    6  A    between atoms: C20_27  and  C21_28
REMARK                            x       y       z     vdW  Elec       q    Type
REMARK                         _______ _______ _______ _____ _____    ______ ____
ROOT
ATOM      1  C10 UNL     1      20.853   7.781  34.480  0.00  0.00    +0.032 A 
ATOM      2  C11 UNL     1      22.060   8.459  34.718  0.00  0.00    +0.024 A 
ATOM      3  C12 UNL     1      23.259   7.983  34.182  0.00  0.00    +0.023 A 
ATOM      4  C13 UNL     1      23.275   6.830  33.392  0.00  0.00    +0.062 A 
ATOM      5 CL1  UNL     1      24.826   6.222  32.826  0.00  0.00    -0.082 Cl
ATOM      6  C14 UNL     1      22.070   6.150  33.123  0.00  0.00    +0.054 A 
ATOM      7  C23 UNL     1      20.874   6.616  33.688  0.00  0.00    +0.048 A 
ENDROOT
BRANCH   1  14
ATOM      8  N1  UNL     1      15.193  10.713  36.258  0.00  0.00    -0.269 N 
ATOM      9  C7  UNL     1      15.617   9.359  36.022  0.00  0.00    +0.307 C 
ATOM     10  O1  UNL     1      14.763   8.433  35.994  0.00  0.00    -0.252 OA
ATOM     11  N2  UNL     1      17.016   9.043  35.872  0.00  0.00    -0.282 N 
ATOM     12  C8  UNL     1      17.460   7.658  36.088  0.00  0.00    +0.128 C 
ATOM     13  C9  UNL     1      18.986   7.557  36.171  0.00  0.00    +0.124 C 
ATOM     14  N3  UNL     1      19.615   8.266  35.046  0.00  0.00    -0.327 N 
ATOM     15  C24 UNL     1      19.055   9.544  34.580  0.00  0.00    +0.124 C 
ATOM     16  C25 UNL     1      17.993  10.088  35.543  0.00  0.00    +0.128 C 
ATOM     17  H7  UNL     1      15.865  11.362  36.726  0.00  0.00    +0.156 HD
BRANCH   8  23
ATOM     18  C1  UNL     1      10.578  11.473  37.948  0.00  0.00    +0.044 C 
ATOM     19  C2  UNL     1      11.587  11.551  36.842  0.00  0.00    -0.049 A 
ATOM     20  C3  UNL     1      11.247  12.152  35.620  0.00  0.00    +0.003 A 
ATOM     21  C4  UNL     1      12.199  12.268  34.605  0.00  0.00    +0.002 A 
ATOM     22  C5  UNL     1      13.498  11.791  34.802  0.00  0.00    +0.023 A 
ATOM     23  C6  UNL     1      13.854  11.183  36.019  0.00  0.00    +0.035 A 
ATOM     24  C26 UNL     1      12.898  11.089  37.043  0.00  0.00    +0.026 A 
ENDBRANCH   8  23
ENDBRANCH   1  14
BRANCH   6  25
ATOM     25  N4  UNL     1      22.042   4.965  32.313  0.00  0.00    -0.280 N 
ATOM     26  C15 UNL     1      21.845   3.657  32.874  0.00  0.00    +0.248 C 
ATOM     27  O2  UNL     1      21.954   3.492  34.120  0.00  0.00    -0.270 OA
ATOM     28  H14 UNL     1      22.400   5.037  31.334  0.00  0.00    +0.155 HD
BRANCH  26  29
ATOM     29  C16 UNL     1      21.542   2.492  32.008  0.00  0.00    +0.038 A 
ATOM     30  C17 UNL     1      20.531   1.585  32.372  0.00  0.00    +0.013 A 
ATOM     31  C18 UNL     1      20.224   0.500  31.550  0.00  0.00    +0.001 A 
ATOM     32  C19 UNL     1      20.921   0.300  30.357  0.00  0.00    +0.012 A 
ATOM     33  C20 UNL     1      21.947   1.182  29.980  0.00  0.00    +0.056 A 
ATOM     34  C22 UNL     1      22.233   2.290  30.798  0.00  0.00    +0.025 A 
BRANCH  33  35
ATOM     35  C21 UNL     1      22.661   1.001  28.663  0.00  0.00    +0.417 C 
ATOM     36  F1  UNL     1      21.888   0.261  27.784  0.00  0.00    -0.166 F 
ATOM     37  F2  UNL     1      22.925   2.227  28.077  0.00  0.00    -0.166 F 
ATOM     38  F3  UNL     1      23.855   0.339  28.879  0.00  0.00    -0.166 F 
ENDBRANCH  33  35
ENDBRANCH  26  29
ENDBRANCH   6  25
TORSDOF 5
ENDMDL
MODEL 9
REMARK VINA RESULT:    -7.989      6.984      9.698
REMARK INTER + INTRA:         -11.233
REMARK INTER:                 -10.296
REMARK INTRA:                  -0.937
REMARK UNBOUND:                -0.909
REMARK  Name = /home/qwerty/github/datacon2025hack/step_04_hit_selection/docking/ligands/lig_91.pdb
REMARK  6 active torsions:
REMARK  status: ('A' for Active; 'I' for Inactive)
REMARK    1  A    between atoms: C1_1  and  C2_2
REMARK    2  A    between atoms: C6_6  and  N1_7
REMARK    3  A    between atoms: N3_13  and  C10_14
REMARK    4  A    between atoms: C14_19  and  N4_20
REMARK    5  A    between atoms: C15_21  and  C16_23
REMARK    6  A    between atoms: C20_27  and  C21_28
REMARK                            x       y       z     vdW  Elec       q    Type
REMARK                         _______ _______ _______ _____ _____    ______ ____
ROOT
ATOM      1  C10 UNL     1       7.449   7.426  29.239  0.00  0.00    +0.032 A 
ATOM      2  C11 UNL     1       7.527   8.344  30.300  0.00  0.00    +0.024 A 
ATOM      3  C12 UNL     1       7.633   9.714  30.047  0.00  0.00    +0.023 A 
ATOM      4  C13 UNL     1       7.653  10.193  28.735  0.00  0.00    +0.062 A 
ATOM      5 CL1  UNL     1       7.887  11.918  28.475  0.00  0.00    -0.082 Cl
ATOM      6  C14 UNL     1       7.552   9.289  27.658  0.00  0.00    +0.054 A 
ATOM      7  C23 UNL     1       7.476   7.913  27.918  0.00  0.00    +0.048 A 
ENDROOT
BRANCH   1  14
ATOM      8  N1  UNL     1       8.046   1.011  30.752  0.00  0.00    -0.269 N 
ATOM      9  C7  UNL     1       7.123   2.062  31.085  0.00  0.00    +0.307 C 
ATOM     10  O1  UNL     1       6.246   1.867  31.971  0.00  0.00    -0.252 OA
ATOM     11  N2  UNL     1       7.154   3.319  30.379  0.00  0.00    -0.282 N 
ATOM     12  C8  UNL     1       5.961   4.179  30.402  0.00  0.00    +0.128 C 
ATOM     13  C9  UNL     1       6.062   5.317  29.383  0.00  0.00    +0.124 C 
ATOM     14  N3  UNL     1       7.354   6.008  29.501  0.00  0.00    -0.327 N 
ATOM     15  C24 UNL     1       8.578   5.233  29.760  0.00  0.00    +0.124 C 
ATOM     16  C25 UNL     1       8.341   3.726  29.617  0.00  0.00    +0.128 C 
ATOM     17  H7  UNL     1       8.426   0.984  29.780  0.00  0.00    +0.156 HD
BRANCH   8  23
ATOM     18  C1  UNL     1      10.257  -0.616  34.898  0.00  0.00    +0.044 C 
ATOM     19  C2  UNL     1       9.452  -0.885  33.662  0.00  0.00    -0.049 A 
ATOM     20  C3  UNL     1       8.948  -2.172  33.417  0.00  0.00    +0.003 A 
ATOM     21  C4  UNL     1       8.159  -2.414  32.291  0.00  0.00    +0.002 A 
ATOM     22  C5  UNL     1       7.863  -1.376  31.404  0.00  0.00    +0.023 A 
ATOM     23  C6  UNL     1       8.363  -0.081  31.633  0.00  0.00    +0.035 A 
ATOM     24  C26 UNL     1       9.137   0.160  32.778  0.00  0.00    +0.026 A 
ENDBRANCH   8  23
ENDBRANCH   1  14
BRANCH   6  25
ATOM     25  N4  UNL     1       7.565   9.741  26.296  0.00  0.00    -0.280 N 
ATOM     26  C15 UNL     1       8.783   9.890  25.548  0.00  0.00    +0.248 C 
ATOM     27  O2  UNL     1       9.889   9.878  26.154  0.00  0.00    -0.270 OA
ATOM     28  H14 UNL     1       6.696  10.186  25.923  0.00  0.00    +0.155 HD
BRANCH  26  29
ATOM     29  C16 UNL     1       8.758  10.084  24.078  0.00  0.00    +0.038 A 
ATOM     30  C17 UNL     1       7.558  10.422  23.430  0.00  0.00    +0.013 A 
ATOM     31  C18 UNL     1       7.531  10.631  22.050  0.00  0.00    +0.001 A 
ATOM     32  C19 UNL     1       8.700  10.502  21.297  0.00  0.00    +0.012 A 
ATOM     33  C20 UNL     1       9.908  10.148  21.917  0.00  0.00    +0.056 A 
ATOM     34  C22 UNL     1       9.935   9.967  23.312  0.00  0.00    +0.025 A 
BRANCH  33  35
ATOM     35  C21 UNL     1      11.182  10.067  21.113  0.00  0.00    +0.417 C 
ATOM     36  F1  UNL     1      11.076  10.811  19.951  0.00  0.00    -0.166 F 
ATOM     37  F2  UNL     1      12.252  10.557  21.841  0.00  0.00    -0.166 F 
ATOM     38  F3  UNL     1      11.429   8.749  20.782  0.00  0.00    -0.166 F 
ENDBRANCH  33  35
ENDBRANCH  26  29
ENDBRANCH   6  25
TORSDOF 5
ENDMDL
