MODEL 1
REMARK VINA RESULT:    -6.066      0.000      0.000
REMARK INTER + INTRA:          -8.428
REMARK INTER:                  -7.484
REMARK INTRA:                  -0.944
REMARK UNBOUND:                -0.944
REMARK  Name = /home/qwerty/github/datacon2025hack/step_04_hit_selection/docking/ligands/lig_804.pdb
REMARK  6 active torsions:
REMARK  status: ('A' for Active; 'I' for Inactive)
REMARK    1  A    between atoms: C1_1  and  C2_2
REMARK    2  A    between atoms: C6_6  and  C7_7
REMARK    3  A    between atoms: C11_14  and  C12_15
REMARK    4  A    between atoms: N4_18  and  C15_19
REMARK    5  A    between atoms: C15_19  and  C16_20
REMARK    6  A    between atoms: C16_20  and  C17_21
REMARK                            x       y       z     vdW  Elec       q    Type
REMARK                         _______ _______ _______ _____ _____    ______ ____
ROOT
ATOM      1  C7  UNL     1      21.760   4.443  33.570  0.00  0.00    +0.184 A 
ATOM      2  N1  UNL     1      21.777   3.121  33.827  0.00  0.00    -0.126 NA
ATOM      3  N2  UNL     1      21.633   2.496  32.669  0.00  0.00    -0.113 NA
ATOM      4  C8  UNL     1      21.510   3.449  31.725  0.00  0.00    +0.220 A 
ATOM      5  N3  UNL     1      21.289   3.155  30.339  0.00  0.00    -0.300 N 
ATOM      6  C9  UNL     1      22.157   2.169  29.686  0.00  0.00    +0.108 C 
ATOM      7  C10 UNL     1      22.150   2.388  28.170  0.00  0.00    +0.022 C 
ATOM      8  C11 UNL     1      20.719   2.349  27.566  0.00  0.00    -0.011 C 
ATOM      9  C12 UNL     1      20.473   1.037  26.810  0.00  0.00    +0.007 C 
ATOM     10  C13 UNL     1      19.609   2.572  28.620  0.00  0.00    +0.022 C 
ATOM     11  C14 UNL     1      20.035   3.577  29.696  0.00  0.00    +0.108 C 
ATOM     12  N4  UNL     1      21.592   4.691  32.251  0.00  0.00    -0.294 N 
ENDROOT
BRANCH   1  18
ATOM     13  C1  UNL     1      19.393   7.710  36.371  0.00  0.00    +0.065 C 
ATOM     14  C2  UNL     1      20.679   7.051  35.983  0.00  0.00    +0.039 A 
ATOM     15  C3  UNL     1      21.875   7.401  36.621  0.00  0.00    +0.023 A 
ATOM     16  C4  UNL     1      23.057   6.753  36.259  0.00  0.00    +0.004 A 
ATOM     17  C5  UNL     1      23.038   5.774  35.265  0.00  0.00    +0.031 A 
ATOM     18  C6  UNL     1      21.828   5.462  34.631  0.00  0.00    +0.108 A 
ATOM     19  N5  UNL     1      20.684   6.091  35.018  0.00  0.00    -0.249 NA
ENDBRANCH   1  18
BRANCH  12  20
ATOM     20  C15 UNL     1      21.442   5.982  31.573  0.00  0.00    +0.129 C 
BRANCH  20  21
ATOM     21  C16 UNL     1      22.815   6.628  31.337  0.00  0.00    +0.055 C 
BRANCH  21  22
ATOM     22  C17 UNL     1      22.855   8.097  31.799  0.00  0.00    +0.146 C 
ATOM     23  C18 UNL     1      23.546   9.029  30.769  0.00  0.00    +0.191 C 
ATOM     24  O1  UNL     1      24.169  10.102  31.440  0.00  0.00    -0.375 OA
ATOM     25  C19 UNL     1      25.230   9.610  32.239  0.00  0.00    +0.188 C 
ATOM     26  C20 UNL     1      24.844   8.333  33.017  0.00  0.00    +0.188 C 
ATOM     27  O2  UNL     1      23.439   8.193  33.094  0.00  0.00    -0.372 OA
ENDBRANCH  21  22
ENDBRANCH  20  21
ENDBRANCH  12  20
TORSDOF 4
ENDMDL
MODEL 2
REMARK VINA RESULT:    -6.027      3.053      5.118
REMARK INTER + INTRA:          -8.381
REMARK INTER:                  -7.334
REMARK INTRA:                  -1.047
REMARK UNBOUND:                -0.944
REMARK  Name = /home/qwerty/github/datacon2025hack/step_04_hit_selection/docking/ligands/lig_804.pdb
REMARK  6 active torsions:
REMARK  status: ('A' for Active; 'I' for Inactive)
REMARK    1  A    between atoms: C1_1  and  C2_2
REMARK    2  A    between atoms: C6_6  and  C7_7
REMARK    3  A    between atoms: C11_14  and  C12_15
REMARK    4  A    between atoms: N4_18  and  C15_19
REMARK    5  A    between atoms: C15_19  and  C16_20
REMARK    6  A    between atoms: C16_20  and  C17_21
REMARK                            x       y       z     vdW  Elec       q    Type
REMARK                         _______ _______ _______ _____ _____    ______ ____
ROOT
ATOM      1  C7  UNL     1      22.032   5.357  31.578  0.00  0.00    +0.184 A 
ATOM      2  N1  UNL     1      21.707   6.209  30.586  0.00  0.00    -0.126 NA
ATOM      3  N2  UNL     1      21.284   5.477  29.566  0.00  0.00    -0.113 NA
ATOM      4  C8  UNL     1      21.376   4.189  29.947  0.00  0.00    +0.220 A 
ATOM      5  N3  UNL     1      21.048   3.091  29.084  0.00  0.00    -0.300 N 
ATOM      6  C9  UNL     1      19.767   3.122  28.369  0.00  0.00    +0.108 C 
ATOM      7  C10 UNL     1      19.356   1.702  27.970  0.00  0.00    +0.022 C 
ATOM      8  C11 UNL     1      20.442   0.980  27.125  0.00  0.00    -0.011 C 
ATOM      9  C12 UNL     1      20.036   0.908  25.647  0.00  0.00    +0.007 C 
ATOM     10  C13 UNL     1      21.843   1.622  27.260  0.00  0.00    +0.022 C 
ATOM     11  C14 UNL     1      22.098   2.144  28.678  0.00  0.00    +0.108 C 
ATOM     12  N4  UNL     1      21.836   4.070  31.212  0.00  0.00    -0.294 N 
ENDROOT
BRANCH   1  18
ATOM     13  C1  UNL     1      21.285   6.823  36.205  0.00  0.00    +0.065 C 
ATOM     14  C2  UNL     1      22.244   6.524  35.097  0.00  0.00    +0.039 A 
ATOM     15  C3  UNL     1      23.623   6.666  35.296  0.00  0.00    +0.023 A 
ATOM     16  C4  UNL     1      24.498   6.356  34.255  0.00  0.00    +0.004 A 
ATOM     17  C5  UNL     1      23.996   5.917  33.029  0.00  0.00    +0.031 A 
ATOM     18  C6  UNL     1      22.609   5.806  32.856  0.00  0.00    +0.108 A 
ATOM     19  N5  UNL     1      21.776   6.093  33.894  0.00  0.00    -0.249 NA
ENDBRANCH   1  18
BRANCH  12  20
ATOM     20  C15 UNL     1      22.138   2.848  31.963  0.00  0.00    +0.129 C 
BRANCH  20  21
ATOM     21  C16 UNL     1      21.044   2.574  33.006  0.00  0.00    +0.055 C 
BRANCH  21  22
ATOM     22  C17 UNL     1      19.682   2.264  32.355  0.00  0.00    +0.146 C 
ATOM     23  C18 UNL     1      18.522   2.233  33.384  0.00  0.00    +0.191 C 
ATOM     24  O1  UNL     1      17.529   1.328  32.955  0.00  0.00    -0.375 OA
ATOM     25  C19 UNL     1      18.051   0.011  32.968  0.00  0.00    +0.188 C 
ATOM     26  C20 UNL     1      19.475  -0.070  32.379  0.00  0.00    +0.188 C 
ATOM     27  O2  UNL     1      19.760   1.067  31.589  0.00  0.00    -0.372 OA
ENDBRANCH  21  22
ENDBRANCH  20  21
ENDBRANCH  12  20
TORSDOF 4
ENDMDL
MODEL 3
REMARK VINA RESULT:    -6.005      3.210      4.950
REMARK INTER + INTRA:          -8.353
REMARK INTER:                  -7.327
REMARK INTRA:                  -1.026
REMARK UNBOUND:                -0.944
REMARK  Name = /home/qwerty/github/datacon2025hack/step_04_hit_selection/docking/ligands/lig_804.pdb
REMARK  6 active torsions:
REMARK  status: ('A' for Active; 'I' for Inactive)
REMARK    1  A    between atoms: C1_1  and  C2_2
REMARK    2  A    between atoms: C6_6  and  C7_7
REMARK    3  A    between atoms: C11_14  and  C12_15
REMARK    4  A    between atoms: N4_18  and  C15_19
REMARK    5  A    between atoms: C15_19  and  C16_20
REMARK    6  A    between atoms: C16_20  and  C17_21
REMARK                            x       y       z     vdW  Elec       q    Type
REMARK                         _______ _______ _______ _____ _____    ______ ____
ROOT
ATOM      1  C7  UNL     1      21.988   5.748  33.492  0.00  0.00    +0.184 A 
ATOM      2  N1  UNL     1      22.424   6.524  32.480  0.00  0.00    -0.126 NA
ATOM      3  N2  UNL     1      22.272   5.830  31.362  0.00  0.00    -0.113 NA
ATOM      4  C8  UNL     1      21.765   4.633  31.713  0.00  0.00    +0.220 A 
ATOM      5  N3  UNL     1      21.506   3.585  30.769  0.00  0.00    -0.300 N 
ATOM      6  C9  UNL     1      20.751   3.909  29.554  0.00  0.00    +0.108 C 
ATOM      7  C10 UNL     1      20.116   2.639  28.978  0.00  0.00    +0.022 C 
ATOM      8  C11 UNL     1      21.159   1.523  28.698  0.00  0.00    -0.011 C 
ATOM      9  C12 UNL     1      21.436   1.388  27.195  0.00  0.00    +0.007 C 
ATOM     10  C13 UNL     1      22.487   1.725  29.467  0.00  0.00    +0.022 C 
ATOM     11  C14 UNL     1      22.255   2.322  30.859  0.00  0.00    +0.108 C 
ATOM     12  N4  UNL     1      21.564   4.543  33.046  0.00  0.00    -0.294 N 
ENDROOT
BRANCH   1  18
ATOM     13  C1  UNL     1      19.633   7.251  37.530  0.00  0.00    +0.065 C 
ATOM     14  C2  UNL     1      20.921   6.897  36.858  0.00  0.00    +0.039 A 
ATOM     15  C3  UNL     1      22.129   6.957  37.564  0.00  0.00    +0.023 A 
ATOM     16  C4  UNL     1      23.314   6.597  36.922  0.00  0.00    +0.004 A 
ATOM     17  C5  UNL     1      23.288   6.190  35.588  0.00  0.00    +0.031 A 
ATOM     18  C6  UNL     1      22.065   6.161  34.902  0.00  0.00    +0.108 A 
ATOM     19  N5  UNL     1      20.919   6.495  35.557  0.00  0.00    -0.249 NA
ENDBRANCH   1  18
BRANCH  12  20
ATOM     20  C15 UNL     1      21.092   3.393  33.823  0.00  0.00    +0.129 C 
BRANCH  20  21
ATOM     21  C16 UNL     1      19.568   3.451  33.999  0.00  0.00    +0.055 C 
BRANCH  21  22
ATOM     22  C17 UNL     1      18.913   2.062  33.877  0.00  0.00    +0.146 C 
ATOM     23  C18 UNL     1      19.861   1.008  33.247  0.00  0.00    +0.191 C 
ATOM     24  O1  UNL     1      19.104   0.050  32.539  0.00  0.00    -0.375 OA
ATOM     25  C19 UNL     1      18.474   0.668  31.431  0.00  0.00    +0.188 C 
ATOM     26  C20 UNL     1      17.849   2.034  31.789  0.00  0.00    +0.188 C 
ATOM     27  O2  UNL     1      17.672   2.158  33.187  0.00  0.00    -0.372 OA
ENDBRANCH  21  22
ENDBRANCH  20  21
ENDBRANCH  12  20
TORSDOF 4
ENDMDL
MODEL 4
REMARK VINA RESULT:    -5.971      3.522      6.400
REMARK INTER + INTRA:          -8.312
REMARK INTER:                  -7.342
REMARK INTRA:                  -0.970
REMARK UNBOUND:                -0.944
REMARK  Name = /home/qwerty/github/datacon2025hack/step_04_hit_selection/docking/ligands/lig_804.pdb
REMARK  6 active torsions:
REMARK  status: ('A' for Active; 'I' for Inactive)
REMARK    1  A    between atoms: C1_1  and  C2_2
REMARK    2  A    between atoms: C6_6  and  C7_7
REMARK    3  A    between atoms: C11_14  and  C12_15
REMARK    4  A    between atoms: N4_18  and  C15_19
REMARK    5  A    between atoms: C15_19  and  C16_20
REMARK    6  A    between atoms: C16_20  and  C17_21
REMARK                            x       y       z     vdW  Elec       q    Type
REMARK                         _______ _______ _______ _____ _____    ______ ____
ROOT
ATOM      1  C7  UNL     1      19.218   3.891  34.240  0.00  0.00    +0.184 A 
ATOM      2  N1  UNL     1      18.675   5.117  34.364  0.00  0.00    -0.126 NA
ATOM      3  N2  UNL     1      19.606   5.994  34.021  0.00  0.00    -0.113 NA
ATOM      4  C8  UNL     1      20.711   5.288  33.713  0.00  0.00    +0.220 A 
ATOM      5  N3  UNL     1      21.952   5.900  33.336  0.00  0.00    -0.300 N 
ATOM      6  C9  UNL     1      21.935   6.936  32.298  0.00  0.00    +0.108 C 
ATOM      7  C10 UNL     1      23.322   7.061  31.661  0.00  0.00    +0.022 C 
ATOM      8  C11 UNL     1      24.437   7.345  32.705  0.00  0.00    -0.011 C 
ATOM      9  C12 UNL     1      24.896   8.807  32.641  0.00  0.00    +0.007 C 
ATOM     10  C13 UNL     1      24.023   6.980  34.151  0.00  0.00    +0.022 C 
ATOM     11  C14 UNL     1      23.137   5.731  34.192  0.00  0.00    +0.108 C 
ATOM     12  N4  UNL     1      20.506   3.958  33.830  0.00  0.00    -0.294 N 
ENDROOT
BRANCH   1  18
ATOM     13  C1  UNL     1      17.595   0.895  37.776  0.00  0.00    +0.065 C 
ATOM     14  C2  UNL     1      17.717   1.204  36.318  0.00  0.00    +0.039 A 
ATOM     15  C3  UNL     1      17.155   0.348  35.362  0.00  0.00    +0.023 A 
ATOM     16  C4  UNL     1      17.261   0.672  34.009  0.00  0.00    +0.004 A 
ATOM     17  C5  UNL     1      17.927   1.835  33.621  0.00  0.00    +0.031 A 
ATOM     18  C6  UNL     1      18.497   2.660  34.601  0.00  0.00    +0.108 A 
ATOM     19  N5  UNL     1      18.361   2.334  35.916  0.00  0.00    -0.249 NA
ENDBRANCH   1  18
BRANCH  12  20
ATOM     20  C15 UNL     1      21.468   2.866  33.650  0.00  0.00    +0.129 C 
BRANCH  20  21
ATOM     21  C16 UNL     1      21.230   2.155  32.310  0.00  0.00    +0.055 C 
BRANCH  21  22
ATOM     22  C17 UNL     1      22.062   2.769  31.168  0.00  0.00    +0.146 C 
ATOM     23  C18 UNL     1      21.188   3.520  30.129  0.00  0.00    +0.191 C 
ATOM     24  O1  UNL     1      21.794   3.448  28.857  0.00  0.00    -0.375 OA
ATOM     25  C19 UNL     1      21.799   2.104  28.410  0.00  0.00    +0.188 C 
ATOM     26  C20 UNL     1      22.211   1.111  29.518  0.00  0.00    +0.188 C 
ATOM     27  O2  UNL     1      22.886   1.776  30.567  0.00  0.00    -0.372 OA
ENDBRANCH  21  22
ENDBRANCH  20  21
ENDBRANCH  12  20
TORSDOF 4
ENDMDL
MODEL 5
REMARK VINA RESULT:    -5.910      1.439      6.324
REMARK INTER + INTRA:          -8.236
REMARK INTER:                  -7.221
REMARK INTRA:                  -1.016
REMARK UNBOUND:                -0.944
REMARK  Name = /home/qwerty/github/datacon2025hack/step_04_hit_selection/docking/ligands/lig_804.pdb
REMARK  6 active torsions:
REMARK  status: ('A' for Active; 'I' for Inactive)
REMARK    1  A    between atoms: C1_1  and  C2_2
REMARK    2  A    between atoms: C6_6  and  C7_7
REMARK    3  A    between atoms: C11_14  and  C12_15
REMARK    4  A    between atoms: N4_18  and  C15_19
REMARK    5  A    between atoms: C15_19  and  C16_20
REMARK    6  A    between atoms: C16_20  and  C17_21
REMARK                            x       y       z     vdW  Elec       q    Type
REMARK                         _______ _______ _______ _____ _____    ______ ____
ROOT
ATOM      1  C7  UNL     1      20.591   4.087  31.568  0.00  0.00    +0.184 A 
ATOM      2  N1  UNL     1      19.312   3.893  31.943  0.00  0.00    -0.126 NA
ATOM      3  N2  UNL     1      19.052   4.763  32.907  0.00  0.00    -0.113 NA
ATOM      4  C8  UNL     1      20.185   5.459  33.119  0.00  0.00    +0.220 A 
ATOM      5  N3  UNL     1      20.307   6.469  34.131  0.00  0.00    -0.300 N 
ATOM      6  C9  UNL     1      19.274   7.507  34.211  0.00  0.00    +0.108 C 
ATOM      7  C10 UNL     1      19.828   8.743  34.926  0.00  0.00    +0.022 C 
ATOM      8  C11 UNL     1      20.391   8.415  36.337  0.00  0.00    -0.011 C 
ATOM      9  C12 UNL     1      19.441   8.900  37.438  0.00  0.00    +0.007 C 
ATOM     10  C13 UNL     1      20.709   6.913  36.530  0.00  0.00    +0.022 C 
ATOM     11  C14 UNL     1      21.246   6.273  35.246  0.00  0.00    +0.108 C 
ATOM     12  N4  UNL     1      21.177   5.069  32.289  0.00  0.00    -0.294 N 
ENDROOT
BRANCH   1  18
ATOM     13  C1  UNL     1      22.030   3.535  26.905  0.00  0.00    +0.065 C 
ATOM     14  C2  UNL     1      21.950   2.983  28.292  0.00  0.00    +0.039 A 
ATOM     15  C3  UNL     1      22.501   1.730  28.589  0.00  0.00    +0.023 A 
ATOM     16  C4  UNL     1      22.435   1.249  29.897  0.00  0.00    +0.004 A 
ATOM     17  C5  UNL     1      21.820   2.011  30.890  0.00  0.00    +0.031 A 
ATOM     18  C6  UNL     1      21.260   3.252  30.556  0.00  0.00    +0.108 A 
ATOM     19  N5  UNL     1      21.356   3.710  29.278  0.00  0.00    -0.249 NA
ENDBRANCH   1  18
BRANCH  12  20
ATOM     20  C15 UNL     1      22.568   5.531  32.249  0.00  0.00    +0.129 C 
BRANCH  20  21
ATOM     21  C16 UNL     1      22.733   6.650  31.210  0.00  0.00    +0.055 C 
BRANCH  21  22
ATOM     22  C17 UNL     1      22.824   8.043  31.863  0.00  0.00    +0.146 C 
ATOM     23  C18 UNL     1      23.471   9.099  30.929  0.00  0.00    +0.191 C 
ATOM     24  O1  UNL     1      24.148  10.066  31.701  0.00  0.00    -0.375 OA
ATOM     25  C19 UNL     1      25.244   9.460  32.365  0.00  0.00    +0.188 C 
ATOM     26  C20 UNL     1      24.881   8.094  32.984  0.00  0.00    +0.188 C 
ATOM     27  O2  UNL     1      23.481   7.957  33.123  0.00  0.00    -0.372 OA
ENDBRANCH  21  22
ENDBRANCH  20  21
ENDBRANCH  12  20
TORSDOF 4
ENDMDL
MODEL 6
REMARK VINA RESULT:    -5.897      5.786     10.370
REMARK INTER + INTRA:          -8.220
REMARK INTER:                  -7.082
REMARK INTRA:                  -1.139
REMARK UNBOUND:                -0.944
REMARK  Name = /home/qwerty/github/datacon2025hack/step_04_hit_selection/docking/ligands/lig_804.pdb
REMARK  6 active torsions:
REMARK  status: ('A' for Active; 'I' for Inactive)
REMARK    1  A    between atoms: C1_1  and  C2_2
REMARK    2  A    between atoms: C6_6  and  C7_7
REMARK    3  A    between atoms: C11_14  and  C12_15
REMARK    4  A    between atoms: N4_18  and  C15_19
REMARK    5  A    between atoms: C15_19  and  C16_20
REMARK    6  A    between atoms: C16_20  and  C17_21
REMARK                            x       y       z     vdW  Elec       q    Type
REMARK                         _______ _______ _______ _____ _____    ______ ____
ROOT
ATOM      1  C7  UNL     1      17.663   0.587  24.837  0.00  0.00    +0.184 A 
ATOM      2  N1  UNL     1      16.920   0.339  25.933  0.00  0.00    -0.126 NA
ATOM      3  N2  UNL     1      17.657   0.660  26.985  0.00  0.00    -0.113 NA
ATOM      4  C8  UNL     1      18.846   1.081  26.513  0.00  0.00    +0.220 A 
ATOM      5  N3  UNL     1      19.933   1.473  27.364  0.00  0.00    -0.300 N 
ATOM      6  C9  UNL     1      19.665   2.424  28.448  0.00  0.00    +0.108 C 
ATOM      7  C10 UNL     1      20.963   3.122  28.865  0.00  0.00    +0.022 C 
ATOM      8  C11 UNL     1      22.076   2.119  29.274  0.00  0.00    -0.011 C 
ATOM      9  C12 UNL     1      22.264   2.092  30.797  0.00  0.00    +0.007 C 
ATOM     10  C13 UNL     1      21.829   0.687  28.743  0.00  0.00    +0.022 C 
ATOM     11  C14 UNL     1      21.182   0.696  27.354  0.00  0.00    +0.108 C 
ATOM     12  N4  UNL     1      18.888   1.058  25.163  0.00  0.00    -0.294 N 
ENDROOT
BRANCH   1  18
ATOM     13  C1  UNL     1      15.700   2.228  20.644  0.00  0.00    +0.065 C 
ATOM     14  C2  UNL     1      16.237   1.083  21.443  0.00  0.00    +0.039 A 
ATOM     15  C3  UNL     1      16.288  -0.204  20.893  0.00  0.00    +0.023 A 
ATOM     16  C4  UNL     1      16.817  -1.250  21.650  0.00  0.00    +0.004 A 
ATOM     17  C5  UNL     1      17.280  -1.009  22.944  0.00  0.00    +0.031 A 
ATOM     18  C6  UNL     1      17.196   0.287  23.473  0.00  0.00    +0.108 A 
ATOM     19  N5  UNL     1      16.697   1.295  22.707  0.00  0.00    -0.249 NA
ENDBRANCH   1  18
BRANCH  12  20
ATOM     20  C15 UNL     1      20.014   1.373  24.278  0.00  0.00    +0.129 C 
BRANCH  20  21
ATOM     21  C16 UNL     1      19.907   2.818  23.767  0.00  0.00    +0.055 C 
BRANCH  21  22
ATOM     22  C17 UNL     1      20.643   3.816  24.681  0.00  0.00    +0.146 C 
ATOM     23  C18 UNL     1      19.671   4.674  25.533  0.00  0.00    +0.191 C 
ATOM     24  O1  UNL     1      20.245   5.938  25.782  0.00  0.00    -0.375 OA
ATOM     25  C19 UNL     1      20.372   6.650  24.563  0.00  0.00    +0.188 C 
ATOM     26  C20 UNL     1      20.912   5.770  23.415  0.00  0.00    +0.188 C 
ATOM     27  O2  UNL     1      21.546   4.611  23.921  0.00  0.00    -0.372 OA
ENDBRANCH  21  22
ENDBRANCH  20  21
ENDBRANCH  12  20
TORSDOF 4
ENDMDL
MODEL 7
REMARK VINA RESULT:    -5.885      7.222      9.948
REMARK INTER + INTRA:          -8.206
REMARK INTER:                  -7.463
REMARK INTRA:                  -0.743
REMARK UNBOUND:                -0.944
REMARK  Name = /home/qwerty/github/datacon2025hack/step_04_hit_selection/docking/ligands/lig_804.pdb
REMARK  6 active torsions:
REMARK  status: ('A' for Active; 'I' for Inactive)
REMARK    1  A    between atoms: C1_1  and  C2_2
REMARK    2  A    between atoms: C6_6  and  C7_7
REMARK    3  A    between atoms: C11_14  and  C12_15
REMARK    4  A    between atoms: N4_18  and  C15_19
REMARK    5  A    between atoms: C15_19  and  C16_20
REMARK    6  A    between atoms: C16_20  and  C17_21
REMARK                            x       y       z     vdW  Elec       q    Type
REMARK                         _______ _______ _______ _____ _____    ______ ____
ROOT
ATOM      1  C7  UNL     1      18.664   3.157  23.615  0.00  0.00    +0.184 A 
ATOM      2  N1  UNL     1      17.393   3.548  23.400  0.00  0.00    -0.126 NA
ATOM      3  N2  UNL     1      16.608   2.548  23.773  0.00  0.00    -0.113 NA
ATOM      4  C8  UNL     1      17.416   1.555  24.190  0.00  0.00    +0.220 A 
ATOM      5  N3  UNL     1      16.927   0.280  24.630  0.00  0.00    -0.300 N 
ATOM      6  C9  UNL     1      15.845   0.249  25.620  0.00  0.00    +0.108 C 
ATOM      7  C10 UNL     1      15.842  -1.097  26.351  0.00  0.00    +0.022 C 
ATOM      8  C11 UNL     1      15.735  -2.304  25.379  0.00  0.00    -0.011 C 
ATOM      9  C12 UNL     1      14.331  -2.921  25.416  0.00  0.00    +0.007 C 
ATOM     10  C13 UNL     1      16.124  -1.950  23.924  0.00  0.00    +0.022 C 
ATOM     11  C14 UNL     1      17.268  -0.932  23.870  0.00  0.00    +0.108 C 
ATOM     12  N4  UNL     1      18.720   1.901  24.114  0.00  0.00    -0.294 N 
ENDROOT
BRANCH   1  18
ATOM     13  C1  UNL     1      22.722   5.510  25.070  0.00  0.00    +0.065 C 
ATOM     14  C2  UNL     1      21.788   5.134  23.963  0.00  0.00    +0.039 A 
ATOM     15  C3  UNL     1      22.036   5.560  22.652  0.00  0.00    +0.023 A 
ATOM     16  C4  UNL     1      21.164   5.175  21.633  0.00  0.00    +0.004 A 
ATOM     17  C5  UNL     1      20.056   4.380  21.928  0.00  0.00    +0.031 A 
ATOM     18  C6  UNL     1      19.825   3.987  23.254  0.00  0.00    +0.108 A 
ATOM     19  N5  UNL     1      20.702   4.357  24.227  0.00  0.00    -0.249 NA
ENDBRANCH   1  18
BRANCH  12  20
ATOM     20  C15 UNL     1      19.901   1.083  24.408  0.00  0.00    +0.129 C 
BRANCH  20  21
ATOM     21  C16 UNL     1      19.915   0.674  25.889  0.00  0.00    +0.055 C 
BRANCH  21  22
ATOM     22  C17 UNL     1      20.450   1.797  26.799  0.00  0.00    +0.146 C 
ATOM     23  C18 UNL     1      21.907   2.201  26.455  0.00  0.00    +0.191 C 
ATOM     24  O1  UNL     1      22.566   2.646  27.620  0.00  0.00    -0.375 OA
ATOM     25  C19 UNL     1      22.702   1.568  28.529  0.00  0.00    +0.188 C 
ATOM     26  C20 UNL     1      21.415   0.722  28.644  0.00  0.00    +0.188 C 
ATOM     27  O2  UNL     1      20.294   1.440  28.168  0.00  0.00    -0.372 OA
ENDBRANCH  21  22
ENDBRANCH  20  21
ENDBRANCH  12  20
TORSDOF 4
ENDMDL
MODEL 8
REMARK VINA RESULT:    -5.876      6.858      9.482
REMARK INTER + INTRA:          -8.194
REMARK INTER:                  -7.217
REMARK INTRA:                  -0.977
REMARK UNBOUND:                -0.944
REMARK  Name = /home/qwerty/github/datacon2025hack/step_04_hit_selection/docking/ligands/lig_804.pdb
REMARK  6 active torsions:
REMARK  status: ('A' for Active; 'I' for Inactive)
REMARK    1  A    between atoms: C1_1  and  C2_2
REMARK    2  A    between atoms: C6_6  and  C7_7
REMARK    3  A    between atoms: C11_14  and  C12_15
REMARK    4  A    between atoms: N4_18  and  C15_19
REMARK    5  A    between atoms: C15_19  and  C16_20
REMARK    6  A    between atoms: C16_20  and  C17_21
REMARK                            x       y       z     vdW  Elec       q    Type
REMARK                         _______ _______ _______ _____ _____    ______ ____
ROOT
ATOM      1  C7  UNL     1      21.313   3.142  27.060  0.00  0.00    +0.184 A 
ATOM      2  N1  UNL     1      22.300   4.052  26.950  0.00  0.00    -0.126 NA
ATOM      3  N2  UNL     1      22.081   4.733  25.835  0.00  0.00    -0.113 NA
ATOM      4  C8  UNL     1      20.974   4.212  25.273  0.00  0.00    +0.220 A 
ATOM      5  N3  UNL     1      20.446   4.663  24.017  0.00  0.00    -0.300 N 
ATOM      6  C9  UNL     1      20.261   6.104  23.813  0.00  0.00    +0.108 C 
ATOM      7  C10 UNL     1      19.225   6.348  22.713  0.00  0.00    +0.022 C 
ATOM      8  C11 UNL     1      19.594   5.644  21.377  0.00  0.00    -0.011 C 
ATOM      9  C12 UNL     1      20.101   6.656  20.341  0.00  0.00    +0.007 C 
ATOM     10  C13 UNL     1      20.622   4.503  21.556  0.00  0.00    +0.022 C 
ATOM     11  C14 UNL     1      20.411   3.744  22.870  0.00  0.00    +0.108 C 
ATOM     12  N4  UNL     1      20.454   3.212  26.018  0.00  0.00    -0.294 N 
ENDROOT
BRANCH   1  18
ATOM     13  C1  UNL     1      22.872  -1.146  28.875  0.00  0.00    +0.065 C 
ATOM     14  C2  UNL     1      22.013   0.068  29.023  0.00  0.00    +0.039 A 
ATOM     15  C3  UNL     1      21.210   0.234  30.159  0.00  0.00    +0.023 A 
ATOM     16  C4  UNL     1      20.437   1.388  30.285  0.00  0.00    +0.004 A 
ATOM     17  C5  UNL     1      20.463   2.358  29.283  0.00  0.00    +0.031 A 
ATOM     18  C6  UNL     1      21.261   2.152  28.149  0.00  0.00    +0.108 A 
ATOM     19  N5  UNL     1      22.024   1.029  28.059  0.00  0.00    -0.249 NA
ENDBRANCH   1  18
BRANCH  12  20
ATOM     20  C15 UNL     1      19.302   2.355  25.721  0.00  0.00    +0.129 C 
BRANCH  20  21
ATOM     21  C16 UNL     1      19.770   0.977  25.229  0.00  0.00    +0.055 C 
BRANCH  21  22
ATOM     22  C17 UNL     1      18.779   0.347  24.232  0.00  0.00    +0.146 C 
ATOM     23  C18 UNL     1      17.668   1.335  23.788  0.00  0.00    +0.191 C 
ATOM     24  O1  UNL     1      16.486   0.622  23.495  0.00  0.00    -0.375 OA
ATOM     25  C19 UNL     1      15.983   0.032  24.681  0.00  0.00    +0.188 C 
ATOM     26  C20 UNL     1      17.090  -0.626  25.533  0.00  0.00    +0.188 C 
ATOM     27  O2  UNL     1      18.249  -0.864  24.759  0.00  0.00    -0.372 OA
ENDBRANCH  21  22
ENDBRANCH  20  21
ENDBRANCH  12  20
TORSDOF 4
ENDMDL
MODEL 9
REMARK VINA RESULT:    -5.753     14.665     15.537
REMARK INTER + INTRA:          -8.043
REMARK INTER:                  -7.438
REMARK INTRA:                  -0.605
REMARK UNBOUND:                -0.944
REMARK  Name = /home/qwerty/github/datacon2025hack/step_04_hit_selection/docking/ligands/lig_804.pdb
REMARK  6 active torsions:
REMARK  status: ('A' for Active; 'I' for Inactive)
REMARK    1  A    between atoms: C1_1  and  C2_2
REMARK    2  A    between atoms: C6_6  and  C7_7
REMARK    3  A    between atoms: C11_14  and  C12_15
REMARK    4  A    between atoms: N4_18  and  C15_19
REMARK    5  A    between atoms: C15_19  and  C16_20
REMARK    6  A    between atoms: C16_20  and  C17_21
REMARK                            x       y       z     vdW  Elec       q    Type
REMARK                         _______ _______ _______ _____ _____    ______ ____
ROOT
ATOM      1  C7  UNL     1       8.555   6.880  26.486  0.00  0.00    +0.184 A 
ATOM      2  N1  UNL     1       9.428   6.020  25.927  0.00  0.00    -0.126 NA
ATOM      3  N2  UNL     1       9.874   6.584  24.815  0.00  0.00    -0.113 NA
ATOM      4  C8  UNL     1       9.250   7.772  24.704  0.00  0.00    +0.220 A 
ATOM      5  N3  UNL     1       9.443   8.658  23.592  0.00  0.00    -0.300 N 
ATOM      6  C9  UNL     1      10.814   8.978  23.183  0.00  0.00    +0.108 C 
ATOM      7  C10 UNL     1      10.833  10.296  22.402  0.00  0.00    +0.022 C 
ATOM      8  C11 UNL     1       9.881  10.277  21.175  0.00  0.00    -0.011 C 
ATOM      9  C12 UNL     1      10.669  10.143  19.865  0.00  0.00    +0.007 C 
ATOM     10  C13 UNL     1       8.800   9.174  21.261  0.00  0.00    +0.022 C 
ATOM     11  C14 UNL     1       8.315   8.961  22.698  0.00  0.00    +0.108 C 
ATOM     12  N4  UNL     1       8.415   8.000  25.742  0.00  0.00    -0.294 N 
ENDROOT
BRANCH   1  18
ATOM     13  C1  UNL     1       7.135   8.256  30.981  0.00  0.00    +0.065 C 
ATOM     14  C2  UNL     1       7.118   7.231  29.893  0.00  0.00    +0.039 A 
ATOM     15  C3  UNL     1       6.402   6.038  30.053  0.00  0.00    +0.023 A 
ATOM     16  C4  UNL     1       6.380   5.109  29.013  0.00  0.00    +0.004 A 
ATOM     17  C5  UNL     1       7.075   5.370  27.831  0.00  0.00    +0.031 A 
ATOM     18  C6  UNL     1       7.799   6.564  27.710  0.00  0.00    +0.108 A 
ATOM     19  N5  UNL     1       7.786   7.466  28.730  0.00  0.00    -0.249 NA
ENDBRANCH   1  18
BRANCH  12  20
ATOM     20  C15 UNL     1       7.513   9.136  25.956  0.00  0.00    +0.129 C 
BRANCH  20  21
ATOM     21  C16 UNL     1       8.313  10.442  26.073  0.00  0.00    +0.055 C 
BRANCH  21  22
ATOM     22  C17 UNL     1       8.815  10.692  27.509  0.00  0.00    +0.146 C 
ATOM     23  C18 UNL     1       7.656  10.812  28.533  0.00  0.00    +0.191 C 
ATOM     24  O1  UNL     1       8.036  11.675  29.583  0.00  0.00    -0.375 OA
ATOM     25  C19 UNL     1       8.201  12.989  29.079  0.00  0.00    +0.188 C 
ATOM     26  C20 UNL     1       8.968  13.020  27.739  0.00  0.00    +0.188 C 
ATOM     27  O2  UNL     1       9.685  11.818  27.540  0.00  0.00    -0.372 OA
ENDBRANCH  21  22
ENDBRANCH  20  21
ENDBRANCH  12  20
TORSDOF 4
ENDMDL
