REMARK  Name = /home/qwerty/github/datacon2025hack/step_04_hit_selection/docking/ligands/lig_730.pdb
REMARK  6 active torsions:
REMARK  status: ('A' for Active; 'I' for Inactive)
REMARK    1  A    between atoms: C1_1  and  C2_2
REMARK    2  A    between atoms: C2_2  and  C3_3
REMARK    3  A    between atoms: C4_4  and  N1_5
REMARK    4  A    between atoms: C5_6  and  C6_8
REMARK    5  A    between atoms: C8_10  and  C9_11
REMARK    6  A    between atoms: C12_17  and  C13_19
REMARK                            x       y       z     vdW  Elec       q    Type
REMARK                         _______ _______ _______ _____ _____    ______ ____
ROOT
ATOM      1  C3  UNL     1       0.437  -1.244  -1.043  0.00  0.00    +0.096 C 
ATOM      2  C4  UNL     1       1.468  -1.781  -0.029  0.00  0.00    +0.095 C 
ATOM      3  C10 UNL     1       0.736  -1.793   1.320  0.00  0.00    +0.043 C 
ATOM      4  C11 UNL     1      -0.419  -0.811   1.183  0.00  0.00    +0.110 C 
ATOM      5  N3  UNL     1      -0.617  -0.625  -0.248  0.00  0.00    -0.293 N 
ATOM      6  C12 UNL     1      -1.539   0.338  -0.794  0.00  0.00    +0.247 C 
ATOM      7  O3  UNL     1      -1.274   0.901  -1.891  0.00  0.00    -0.270 OA
ENDROOT
BRANCH   6   8
ATOM      8  C13 UNL     1      -2.789   0.696  -0.094  0.00  0.00    +0.039 A 
ATOM      9  C14 UNL     1      -3.604  -0.309   0.489  0.00  0.00    +0.014 A 
ATOM     10  C15 UNL     1      -4.805   0.028   1.140  0.00  0.00    +0.011 A 
ATOM     11  C16 UNL     1      -5.168   1.370   1.179  0.00  0.00    -0.000 A 
ATOM     12  C17 UNL     1      -6.270   1.986   1.731  0.00  0.00    +0.027 A 
ATOM     13  C18 UNL     1      -6.105   3.340   1.455  0.00  0.00    +0.083 A 
ATOM     14  N4  UNL     1      -4.960   3.554   0.766  0.00  0.00    -0.361 N 
ATOM     15  C19 UNL     1      -4.399   2.345   0.604  0.00  0.00    +0.047 A 
ATOM     16  C20 UNL     1      -3.204   2.046  -0.048  0.00  0.00    +0.039 A 
ATOM     17  H21 UNL     1      -4.594   4.472   0.430  0.00  0.00    +0.165 HD
ENDBRANCH   6   8
BRANCH   2  18
ATOM     18  N1  UNL     1       2.639  -0.895   0.020  0.00  0.00    -0.305 N 
ATOM     19  C5  UNL     1       3.645  -0.918  -1.005  0.00  0.00    +0.266 C 
ATOM     20  O1  UNL     1       3.551  -1.737  -1.959  0.00  0.00    -0.268 OA
ATOM     21  H8  UNL     1       2.742  -0.230   0.819  0.00  0.00    +0.149 HD
BRANCH  19  22
ATOM     22  C6  UNL     1       4.796   0.003  -0.969  0.00  0.00    +0.168 A 
ATOM     23  C7  UNL     1       5.056   0.979  -0.024  0.00  0.00    +0.080 A 
ATOM     24  C8  UNL     1       6.236   1.540  -0.461  0.00  0.00    +0.135 A 
ATOM     25  C9  UNL     1       6.965   2.672   0.180  0.00  0.00    +0.089 C 
ATOM     26  O2  UNL     1       6.613   0.941  -1.565  0.00  0.00    -0.359 OA
ATOM     27  N2  UNL     1       5.771   0.007  -1.900  0.00  0.00    -0.073 NA
ENDBRANCH  19  22
ENDBRANCH   2  18
BRANCH   1  29
ATOM     28  C1  UNL     1      -0.927  -3.426  -1.248  0.00  0.00    +0.006 C 
ATOM     29  C2  UNL     1      -0.135  -2.336  -1.974  0.00  0.00    +0.021 C 
ENDBRANCH   1  29
TORSDOF 4
