MODEL 1
REMARK VINA RESULT:    -6.067      0.000      0.000
REMARK INTER + INTRA:          -7.989
REMARK INTER:                  -7.485
REMARK INTRA:                  -0.503
REMARK UNBOUND:                -0.503
REMARK  Name = /home/qwerty/github/datacon2025hack/step_04_hit_selection/docking/ligands/lig_778.pdb
REMARK  7 active torsions:
REMARK  status: ('A' for Active; 'I' for Inactive)
REMARK    1  A    between atoms: C1_1  and  O1_2
REMARK    2  A    between atoms: O1_2  and  C2_3
REMARK    3  A    between atoms: C6_7  and  C7_8
REMARK    4  A    between atoms: C10_13  and  N2_14
REMARK    5  A    between atoms: C11_15  and  C12_17
REMARK    6  A    between atoms: C14_19  and  C15_20
REMARK    7  A    between atoms: C16_21  and  C17_22
REMARK                            x       y       z     vdW  Elec       q    Type
REMARK                         _______ _______ _______ _____ _____    ______ ____
ROOT
ATOM      1  C7  UNL     1      21.593   3.860  27.837  0.00  0.00    +0.265 C 
ATOM      2  O2  UNL     1      21.433   4.884  28.553  0.00  0.00    -0.268 OA
ATOM      3  N1  UNL     1      21.675   4.000  26.407  0.00  0.00    -0.294 N 
ATOM      4  C8  UNL     1      21.066   3.065  25.472  0.00  0.00    +0.110 C 
ATOM      5  C9  UNL     1      21.315   3.650  24.090  0.00  0.00    +0.043 C 
ATOM      6  C10 UNL     1      21.610   5.135  24.320  0.00  0.00    +0.092 C 
ATOM      7  C18 UNL     1      22.115   5.227  25.763  0.00  0.00    +0.130 C 
ENDROOT
BRANCH   1  12
ATOM      8  C2  UNL     1      22.998   0.629  29.028  0.00  0.00    +0.215 A 
ATOM      9  C3  UNL     1      21.904   0.025  29.653  0.00  0.00    +0.067 A 
ATOM     10  C4  UNL     1      20.678   0.691  29.679  0.00  0.00    +0.007 A 
ATOM     11  C5  UNL     1      20.557   1.952  29.092  0.00  0.00    +0.033 A 
ATOM     12  C6  UNL     1      21.680   2.542  28.493  0.00  0.00    +0.129 A 
ATOM     13  N3  UNL     1      22.858   1.860  28.462  0.00  0.00    -0.208 NA
BRANCH   8  15
ATOM     14  C1  UNL     1      24.320  -1.463  28.980  0.00  0.00    +0.279 C 
ATOM     15  O1  UNL     1      24.223  -0.044  28.989  0.00  0.00    -0.480 OA
ENDBRANCH   8  15
ENDBRANCH   1  12
BRANCH   6  16
ATOM     16  N2  UNL     1      22.586   5.647  23.350  0.00  0.00    -0.304 N 
ATOM     17  C11 UNL     1      22.234   6.656  22.389  0.00  0.00    +0.280 C 
ATOM     18  O3  UNL     1      21.082   7.169  22.409  0.00  0.00    -0.267 OA
ATOM     19  H12 UNL     1      23.572   5.310  23.391  0.00  0.00    +0.149 HD
BRANCH  17  20
ATOM     20  C12 UNL     1      23.196   7.115  21.374  0.00  0.00    +0.190 A 
ATOM     21  C13 UNL     1      23.558   8.426  21.101  0.00  0.00    +0.058 A 
ATOM     22  C14 UNL     1      24.478   8.347  20.076  0.00  0.00    -0.009 A 
ATOM     23  C15 UNL     1      25.215   9.489  19.453  0.00  0.00    +0.047 C 
ATOM     24  C16 UNL     1      24.633   7.002  19.797  0.00  0.00    +0.106 A 
ATOM     25  C17 UNL     1      25.538   6.411  18.766  0.00  0.00    +0.086 C 
ATOM     26  O4  UNL     1      23.853   6.295  20.582  0.00  0.00    -0.455 OA
ENDBRANCH  17  20
ENDBRANCH   6  16
TORSDOF 4
ENDMDL
MODEL 2
REMARK VINA RESULT:    -6.050     11.607     14.800
REMARK INTER + INTRA:          -7.968
REMARK INTER:                  -7.465
REMARK INTRA:                  -0.503
REMARK UNBOUND:                -0.503
REMARK  Name = /home/qwerty/github/datacon2025hack/step_04_hit_selection/docking/ligands/lig_778.pdb
REMARK  7 active torsions:
REMARK  status: ('A' for Active; 'I' for Inactive)
REMARK    1  A    between atoms: C1_1  and  O1_2
REMARK    2  A    between atoms: O1_2  and  C2_3
REMARK    3  A    between atoms: C6_7  and  C7_8
REMARK    4  A    between atoms: C10_13  and  N2_14
REMARK    5  A    between atoms: C11_15  and  C12_17
REMARK    6  A    between atoms: C14_19  and  C15_20
REMARK    7  A    between atoms: C16_21  and  C17_22
REMARK                            x       y       z     vdW  Elec       q    Type
REMARK                         _______ _______ _______ _____ _____    ______ ____
ROOT
ATOM      1  C7  UNL     1      20.709   9.373  35.103  0.00  0.00    +0.265 C 
ATOM      2  O2  UNL     1      21.085  10.323  34.365  0.00  0.00    -0.268 OA
ATOM      3  N1  UNL     1      19.570   9.551  35.963  0.00  0.00    -0.294 N 
ATOM      4  C8  UNL     1      19.494   9.022  37.316  0.00  0.00    +0.110 C 
ATOM      5  C9  UNL     1      18.175   9.528  37.880  0.00  0.00    +0.043 C 
ATOM      6  C10 UNL     1      17.793  10.731  37.012  0.00  0.00    +0.092 C 
ATOM      7  C18 UNL     1      18.516  10.512  35.680  0.00  0.00    +0.130 C 
ENDROOT
BRANCH   1  12
ATOM      8  C2  UNL     1      21.538   5.812  34.420  0.00  0.00    +0.215 A 
ATOM      9  C3  UNL     1      22.794   5.665  35.014  0.00  0.00    +0.067 A 
ATOM     10  C4  UNL     1      23.378   6.757  35.657  0.00  0.00    +0.007 A 
ATOM     11  C5  UNL     1      22.712   7.983  35.694  0.00  0.00    +0.033 A 
ATOM     12  C6  UNL     1      21.462   8.105  35.067  0.00  0.00    +0.129 A 
ATOM     13  N3  UNL     1      20.906   7.018  34.466  0.00  0.00    -0.208 NA
BRANCH   8  15
ATOM     14  C1  UNL     1      21.617   3.471  33.619  0.00  0.00    +0.279 C 
ATOM     15  O1  UNL     1      20.946   4.715  33.787  0.00  0.00    -0.480 OA
ENDBRANCH   8  15
ENDBRANCH   1  12
BRANCH   6  16
ATOM     16  N2  UNL     1      16.338  10.838  36.850  0.00  0.00    -0.304 N 
ATOM     17  C11 UNL     1      15.664  12.105  36.925  0.00  0.00    +0.280 C 
ATOM     18  O3  UNL     1      16.331  13.166  37.069  0.00  0.00    -0.267 OA
ATOM     19  H12 UNL     1      15.784   9.984  36.624  0.00  0.00    +0.149 HD
BRANCH  17  20
ATOM     20  C12 UNL     1      14.197  12.200  36.832  0.00  0.00    +0.190 A 
ATOM     21  C13 UNL     1      13.464  13.205  36.220  0.00  0.00    +0.058 A 
ATOM     22  C14 UNL     1      12.142  12.854  36.396  0.00  0.00    -0.009 A 
ATOM     23  C15 UNL     1      10.950  13.587  35.871  0.00  0.00    +0.047 C 
ATOM     24  C16 UNL     1      12.147  11.656  37.086  0.00  0.00    +0.106 A 
ATOM     25  C17 UNL     1      10.948  10.869  37.503  0.00  0.00    +0.086 C 
ATOM     26  O4  UNL     1      13.385  11.296  37.336  0.00  0.00    -0.455 OA
ENDBRANCH  17  20
ENDBRANCH   6  16
TORSDOF 4
ENDMDL
MODEL 3
REMARK VINA RESULT:    -5.976      1.284      1.807
REMARK INTER + INTRA:          -7.876
REMARK INTER:                  -7.416
REMARK INTRA:                  -0.460
REMARK UNBOUND:                -0.503
REMARK  Name = /home/qwerty/github/datacon2025hack/step_04_hit_selection/docking/ligands/lig_778.pdb
REMARK  7 active torsions:
REMARK  status: ('A' for Active; 'I' for Inactive)
REMARK    1  A    between atoms: C1_1  and  O1_2
REMARK    2  A    between atoms: O1_2  and  C2_3
REMARK    3  A    between atoms: C6_7  and  C7_8
REMARK    4  A    between atoms: C10_13  and  N2_14
REMARK    5  A    between atoms: C11_15  and  C12_17
REMARK    6  A    between atoms: C14_19  and  C15_20
REMARK    7  A    between atoms: C16_21  and  C17_22
REMARK                            x       y       z     vdW  Elec       q    Type
REMARK                         _______ _______ _______ _____ _____    ______ ____
ROOT
ATOM      1  C7  UNL     1      21.467   3.759  27.737  0.00  0.00    +0.265 C 
ATOM      2  O2  UNL     1      21.312   4.799  28.433  0.00  0.00    -0.268 OA
ATOM      3  N1  UNL     1      21.492   3.863  26.303  0.00  0.00    -0.294 N 
ATOM      4  C8  UNL     1      20.870   2.892  25.416  0.00  0.00    +0.110 C 
ATOM      5  C9  UNL     1      21.053   3.445  24.010  0.00  0.00    +0.043 C 
ATOM      6  C10 UNL     1      21.322   4.941  24.191  0.00  0.00    +0.092 C 
ATOM      7  C18 UNL     1      21.879   5.082  25.611  0.00  0.00    +0.130 C 
ENDROOT
BRANCH   1  12
ATOM      8  C2  UNL     1      20.740   0.896  29.997  0.00  0.00    +0.215 A 
ATOM      9  C3  UNL     1      21.840   0.058  29.802  0.00  0.00    +0.067 A 
ATOM     10  C4  UNL     1      22.845   0.444  28.913  0.00  0.00    +0.007 A 
ATOM     11  C5  UNL     1      22.739   1.653  28.224  0.00  0.00    +0.033 A 
ATOM     12  C6  UNL     1      21.610   2.462  28.423  0.00  0.00    +0.129 A 
ATOM     13  N3  UNL     1      20.655   2.071  29.312  0.00  0.00    -0.208 NA
BRANCH   8  15
ATOM     14  C1  UNL     1      19.995   0.286  32.277  0.00  0.00    +0.279 C 
ATOM     15  O1  UNL     1      19.739   0.517  30.897  0.00  0.00    -0.480 OA
ENDBRANCH   8  15
ENDBRANCH   1  12
BRANCH   6  16
ATOM     16  N2  UNL     1      22.248   5.449  23.172  0.00  0.00    -0.304 N 
ATOM     17  C11 UNL     1      22.001   6.683  22.478  0.00  0.00    +0.280 C 
ATOM     18  O3  UNL     1      21.002   7.389  22.786  0.00  0.00    -0.267 OA
ATOM     19  H12 UNL     1      23.133   4.931  22.982  0.00  0.00    +0.149 HD
BRANCH  17  20
ATOM     20  C12 UNL     1      22.896   7.153  21.407  0.00  0.00    +0.190 A 
ATOM     21  C13 UNL     1      23.110   8.466  21.016  0.00  0.00    +0.058 A 
ATOM     22  C14 UNL     1      24.022   8.397  19.984  0.00  0.00    -0.009 A 
ATOM     23  C15 UNL     1      24.624   9.552  19.250  0.00  0.00    +0.047 C 
ATOM     24  C16 UNL     1      24.321   7.057  19.818  0.00  0.00    +0.106 A 
ATOM     25  C17 UNL     1      25.273   6.478  18.824  0.00  0.00    +0.086 C 
ATOM     26  O4  UNL     1      23.630   6.342  20.676  0.00  0.00    -0.455 OA
ENDBRANCH  17  20
ENDBRANCH   6  16
TORSDOF 4
ENDMDL
MODEL 4
REMARK VINA RESULT:    -5.957     13.587     16.847
REMARK INTER + INTRA:          -7.854
REMARK INTER:                  -7.419
REMARK INTRA:                  -0.435
REMARK UNBOUND:                -0.503
REMARK  Name = /home/qwerty/github/datacon2025hack/step_04_hit_selection/docking/ligands/lig_778.pdb
REMARK  7 active torsions:
REMARK  status: ('A' for Active; 'I' for Inactive)
REMARK    1  A    between atoms: C1_1  and  O1_2
REMARK    2  A    between atoms: O1_2  and  C2_3
REMARK    3  A    between atoms: C6_7  and  C7_8
REMARK    4  A    between atoms: C10_13  and  N2_14
REMARK    5  A    between atoms: C11_15  and  C12_17
REMARK    6  A    between atoms: C14_19  and  C15_20
REMARK    7  A    between atoms: C16_21  and  C17_22
REMARK                            x       y       z     vdW  Elec       q    Type
REMARK                         _______ _______ _______ _____ _____    ______ ____
ROOT
ATOM      1  C7  UNL     1      12.508  11.994  36.595  0.00  0.00    +0.265 C 
ATOM      2  O2  UNL     1      11.985  11.028  37.212  0.00  0.00    -0.268 OA
ATOM      3  N1  UNL     1      13.933  12.184  36.650  0.00  0.00    -0.294 N 
ATOM      4  C8  UNL     1      14.567  13.490  36.753  0.00  0.00    +0.110 C 
ATOM      5  C9  UNL     1      16.057  13.212  36.882  0.00  0.00    +0.043 C 
ATOM      6  C10 UNL     1      16.164  11.759  37.352  0.00  0.00    +0.092 C 
ATOM      7  C18 UNL     1      14.860  11.092  36.902  0.00  0.00    +0.130 C 
ENDROOT
BRANCH   1  12
ATOM      8  C2  UNL     1      11.202  14.091  33.814  0.00  0.00    +0.215 A 
ATOM      9  C3  UNL     1      10.067  14.681  34.376  0.00  0.00    +0.067 A 
ATOM     10  C4  UNL     1       9.726  14.388  35.697  0.00  0.00    +0.007 A 
ATOM     11  C5  UNL     1      10.513  13.506  36.441  0.00  0.00    +0.033 A 
ATOM     12  C6  UNL     1      11.633  12.911  35.841  0.00  0.00    +0.129 A 
ATOM     13  N3  UNL     1      11.954  13.232  34.557  0.00  0.00    -0.208 NA
BRANCH   8  15
ATOM     14  C1  UNL     1      11.471  13.440  31.441  0.00  0.00    +0.279 C 
ATOM     15  O1  UNL     1      11.551  14.394  32.495  0.00  0.00    -0.480 OA
ENDBRANCH   8  15
ENDBRANCH   1  12
BRANCH   6  16
ATOM     16  N2  UNL     1      17.352  11.099  36.797  0.00  0.00    -0.304 N 
ATOM     17  C11 UNL     1      18.034  10.053  37.509  0.00  0.00    +0.280 C 
ATOM     18  O3  UNL     1      17.576   9.638  38.608  0.00  0.00    -0.267 OA
ATOM     19  H12 UNL     1      17.681  11.357  35.841  0.00  0.00    +0.149 HD
BRANCH  17  20
ATOM     20  C12 UNL     1      19.266   9.443  36.981  0.00  0.00    +0.190 A 
ATOM     21  C13 UNL     1      19.908   9.755  35.793  0.00  0.00    +0.058 A 
ATOM     22  C14 UNL     1      21.005   8.922  35.738  0.00  0.00    -0.009 A 
ATOM     23  C15 UNL     1      22.055   8.902  34.673  0.00  0.00    +0.047 C 
ATOM     24  C16 UNL     1      20.977   8.167  36.896  0.00  0.00    +0.106 A 
ATOM     25  C17 UNL     1      21.969   7.126  37.298  0.00  0.00    +0.086 C 
ATOM     26  O4  UNL     1      19.927   8.496  37.612  0.00  0.00    -0.455 OA
ENDBRANCH  17  20
ENDBRANCH   6  16
TORSDOF 4
ENDMDL
MODEL 5
REMARK VINA RESULT:    -5.932     12.228     15.333
REMARK INTER + INTRA:          -7.822
REMARK INTER:                  -7.369
REMARK INTRA:                  -0.454
REMARK UNBOUND:                -0.503
REMARK  Name = /home/qwerty/github/datacon2025hack/step_04_hit_selection/docking/ligands/lig_778.pdb
REMARK  7 active torsions:
REMARK  status: ('A' for Active; 'I' for Inactive)
REMARK    1  A    between atoms: C1_1  and  O1_2
REMARK    2  A    between atoms: O1_2  and  C2_3
REMARK    3  A    between atoms: C6_7  and  C7_8
REMARK    4  A    between atoms: C10_13  and  N2_14
REMARK    5  A    between atoms: C11_15  and  C12_17
REMARK    6  A    between atoms: C14_19  and  C15_20
REMARK    7  A    between atoms: C16_21  and  C17_22
REMARK                            x       y       z     vdW  Elec       q    Type
REMARK                         _______ _______ _______ _____ _____    ______ ____
ROOT
ATOM      1  C7  UNL     1      15.700  12.782  36.591  0.00  0.00    +0.265 C 
ATOM      2  O2  UNL     1      16.155  13.799  37.181  0.00  0.00    -0.268 OA
ATOM      3  N1  UNL     1      16.604  11.895  35.908  0.00  0.00    -0.294 N 
ATOM      4  C8  UNL     1      16.300  11.266  34.631  0.00  0.00    +0.110 C 
ATOM      5  C9  UNL     1      17.559  10.506  34.240  0.00  0.00    +0.043 C 
ATOM      6  C10 UNL     1      18.690  11.140  35.054  0.00  0.00    +0.092 C 
ATOM      7  C18 UNL     1      18.006  11.771  36.271  0.00  0.00    +0.130 C 
ENDROOT
BRANCH   1  12
ATOM      8  C2  UNL     1      12.048  13.365  36.198  0.00  0.00    +0.215 A 
ATOM      9  C3  UNL     1      11.489  12.182  36.686  0.00  0.00    +0.067 A 
ATOM     10  C4  UNL     1      12.330  11.172  37.159  0.00  0.00    +0.007 A 
ATOM     11  C5  UNL     1      13.714  11.349  37.133  0.00  0.00    +0.033 A 
ATOM     12  C6  UNL     1      14.246  12.540  36.614  0.00  0.00    +0.129 A 
ATOM     13  N3  UNL     1      13.402  13.516  36.180  0.00  0.00    -0.208 NA
BRANCH   8  15
ATOM     14  C1  UNL     1       9.788  14.290  35.795  0.00  0.00    +0.279 C 
ATOM     15  O1  UNL     1      11.207  14.382  35.736  0.00  0.00    -0.480 OA
ENDBRANCH   8  15
ENDBRANCH   1  12
BRANCH   6  16
ATOM     16  N2  UNL     1      19.703  10.148  35.431  0.00  0.00    -0.304 N 
ATOM     17  C11 UNL     1      20.802   9.827  34.563  0.00  0.00    +0.280 C 
ATOM     18  O3  UNL     1      20.948  10.450  33.476  0.00  0.00    -0.267 OA
ATOM     19  H12 UNL     1      19.657   9.702  36.373  0.00  0.00    +0.149 HD
BRANCH  17  20
ATOM     20  C12 UNL     1      21.777   8.781  34.914  0.00  0.00    +0.190 A 
ATOM     21  C13 UNL     1      22.674   8.156  34.061  0.00  0.00    +0.058 A 
ATOM     22  C14 UNL     1      23.364   7.258  34.847  0.00  0.00    -0.009 A 
ATOM     23  C15 UNL     1      24.486   6.371  34.410  0.00  0.00    +0.047 C 
ATOM     24  C16 UNL     1      22.864   7.399  36.129  0.00  0.00    +0.106 A 
ATOM     25  C17 UNL     1      23.306   6.646  37.340  0.00  0.00    +0.086 C 
ATOM     26  O4  UNL     1      21.917   8.309  36.134  0.00  0.00    -0.455 OA
ENDBRANCH  17  20
ENDBRANCH   6  16
TORSDOF 4
ENDMDL
MODEL 6
REMARK VINA RESULT:    -5.869     13.565     16.002
REMARK INTER + INTRA:          -7.745
REMARK INTER:                  -7.297
REMARK INTRA:                  -0.448
REMARK UNBOUND:                -0.503
REMARK  Name = /home/qwerty/github/datacon2025hack/step_04_hit_selection/docking/ligands/lig_778.pdb
REMARK  7 active torsions:
REMARK  status: ('A' for Active; 'I' for Inactive)
REMARK    1  A    between atoms: C1_1  and  O1_2
REMARK    2  A    between atoms: O1_2  and  C2_3
REMARK    3  A    between atoms: C6_7  and  C7_8
REMARK    4  A    between atoms: C10_13  and  N2_14
REMARK    5  A    between atoms: C11_15  and  C12_17
REMARK    6  A    between atoms: C14_19  and  C15_20
REMARK    7  A    between atoms: C16_21  and  C17_22
REMARK                            x       y       z     vdW  Elec       q    Type
REMARK                         _______ _______ _______ _____ _____    ______ ____
ROOT
ATOM      1  C7  UNL     1      15.020  15.291  28.415  0.00  0.00    +0.265 C 
ATOM      2  O2  UNL     1      15.029  15.609  27.195  0.00  0.00    -0.268 OA
ATOM      3  N1  UNL     1      13.819  14.762  29.002  0.00  0.00    -0.294 N 
ATOM      4  C8  UNL     1      13.361  15.101  30.341  0.00  0.00    +0.110 C 
ATOM      5  C9  UNL     1      12.019  14.403  30.504  0.00  0.00    +0.043 C 
ATOM      6  C10 UNL     1      11.533  14.113  29.081  0.00  0.00    +0.092 C 
ATOM      7  C18 UNL     1      12.801  14.077  28.222  0.00  0.00    +0.130 C 
ENDROOT
BRANCH   1  12
ATOM      8  C2  UNL     1      17.858  14.566  30.708  0.00  0.00    +0.215 A 
ATOM      9  C3  UNL     1      18.526  15.791  30.774  0.00  0.00    +0.067 A 
ATOM     10  C4  UNL     1      18.031  16.880  30.055  0.00  0.00    +0.007 A 
ATOM     11  C5  UNL     1      16.884  16.735  29.272  0.00  0.00    +0.033 A 
ATOM     12  C6  UNL     1      16.249  15.485  29.207  0.00  0.00    +0.129 A 
ATOM     13  N3  UNL     1      16.741  14.446  29.936  0.00  0.00    -0.208 NA
BRANCH   8  15
ATOM     14  C1  UNL     1      19.527  13.552  32.227  0.00  0.00    +0.279 C 
ATOM     15  O1  UNL     1      18.346  13.478  31.438  0.00  0.00    -0.480 OA
ENDBRANCH   8  15
ENDBRANCH   1  12
BRANCH   6  16
ATOM     16  N2  UNL     1      10.775  12.857  29.016  0.00  0.00    -0.304 N 
ATOM     17  C11 UNL     1       9.501  12.780  28.356  0.00  0.00    +0.280 C 
ATOM     18  O3  UNL     1       9.040  13.791  27.758  0.00  0.00    -0.267 OA
ATOM     19  H12 UNL     1      11.192  11.987  29.413  0.00  0.00    +0.149 HD
BRANCH  17  20
ATOM     20  C12 UNL     1       8.712  11.537  28.354  0.00  0.00    +0.190 A 
ATOM     21  C13 UNL     1       8.438  10.726  27.264  0.00  0.00    +0.058 A 
ATOM     22  C14 UNL     1       7.670   9.693  27.759  0.00  0.00    -0.009 A 
ATOM     23  C15 UNL     1       7.158   8.517  26.990  0.00  0.00    +0.047 C 
ATOM     24  C16 UNL     1       7.536   9.924  29.116  0.00  0.00    +0.106 A 
ATOM     25  C17 UNL     1       6.797   9.069  30.091  0.00  0.00    +0.086 C 
ATOM     26  O4  UNL     1       8.163  11.032  29.438  0.00  0.00    -0.455 OA
ENDBRANCH  17  20
ENDBRANCH   6  16
TORSDOF 4
ENDMDL
MODEL 7
REMARK VINA RESULT:    -5.832      9.944     11.360
REMARK INTER + INTRA:          -7.699
REMARK INTER:                  -7.189
REMARK INTRA:                  -0.510
REMARK UNBOUND:                -0.503
REMARK  Name = /home/qwerty/github/datacon2025hack/step_04_hit_selection/docking/ligands/lig_778.pdb
REMARK  7 active torsions:
REMARK  status: ('A' for Active; 'I' for Inactive)
REMARK    1  A    between atoms: C1_1  and  O1_2
REMARK    2  A    between atoms: O1_2  and  C2_3
REMARK    3  A    between atoms: C6_7  and  C7_8
REMARK    4  A    between atoms: C10_13  and  N2_14
REMARK    5  A    between atoms: C11_15  and  C12_17
REMARK    6  A    between atoms: C14_19  and  C15_20
REMARK    7  A    between atoms: C16_21  and  C17_22
REMARK                            x       y       z     vdW  Elec       q    Type
REMARK                         _______ _______ _______ _____ _____    ______ ____
ROOT
ATOM      1  C7  UNL     1      13.559   1.067  22.825  0.00  0.00    +0.265 C 
ATOM      2  O2  UNL     1      12.640   0.630  23.569  0.00  0.00    -0.268 OA
ATOM      3  N1  UNL     1      13.273   2.121  21.888  0.00  0.00    -0.294 N 
ATOM      4  C8  UNL     1      13.824   2.171  20.542  0.00  0.00    +0.110 C 
ATOM      5  C9  UNL     1      13.184   3.384  19.883  0.00  0.00    +0.043 C 
ATOM      6  C10 UNL     1      11.923   3.676  20.701  0.00  0.00    +0.092 C 
ATOM      7  C18 UNL     1      12.189   3.070  22.083  0.00  0.00    +0.130 C 
ENDROOT
BRANCH   1  12
ATOM      8  C2  UNL     1      17.210   0.760  23.464  0.00  0.00    +0.215 A 
ATOM      9  C3  UNL     1      17.478  -0.563  23.106  0.00  0.00    +0.067 A 
ATOM     10  C4  UNL     1      16.440  -1.370  22.640  0.00  0.00    +0.007 A 
ATOM     11  C5  UNL     1      15.146  -0.854  22.544  0.00  0.00    +0.033 A 
ATOM     12  C6  UNL     1      14.903   0.471  22.934  0.00  0.00    +0.129 A 
ATOM     13  N3  UNL     1      15.940   1.243  23.365  0.00  0.00    -0.208 NA
BRANCH   8  15
ATOM     14  C1  UNL     1      18.382   2.939  23.542  0.00  0.00    +0.279 C 
ATOM     15  O1  UNL     1      18.253   1.573  23.920  0.00  0.00    -0.480 OA
ENDBRANCH   8  15
ENDBRANCH   1  12
BRANCH   6  16
ATOM     16  N2  UNL     1      11.644   5.116  20.764  0.00  0.00    -0.304 N 
ATOM     17  C11 UNL     1      10.310   5.631  20.625  0.00  0.00    +0.280 C 
ATOM     18  O3  UNL     1       9.337   4.836  20.510  0.00  0.00    -0.267 OA
ATOM     19  H12 UNL     1      12.423   5.780  20.966  0.00  0.00    +0.149 HD
BRANCH  17  20
ATOM     20  C12 UNL     1      10.044   7.079  20.619  0.00  0.00    +0.190 A 
ATOM     21  C13 UNL     1       8.979   7.734  21.219  0.00  0.00    +0.058 A 
ATOM     22  C14 UNL     1       9.163   9.071  20.936  0.00  0.00    -0.009 A 
ATOM     23  C15 UNL     1       8.310  10.206  21.405  0.00  0.00    +0.047 C 
ATOM     24  C16 UNL     1      10.330   9.154  20.199  0.00  0.00    +0.106 A 
ATOM     25  C17 UNL     1      10.954  10.403  19.667  0.00  0.00    +0.086 C 
ATOM     26  O4  UNL     1      10.827   7.952  20.022  0.00  0.00    -0.455 OA
ENDBRANCH  17  20
ENDBRANCH   6  16
TORSDOF 4
ENDMDL
MODEL 8
REMARK VINA RESULT:    -5.692     12.545     15.705
REMARK INTER + INTRA:          -7.527
REMARK INTER:                  -7.024
REMARK INTRA:                  -0.503
REMARK UNBOUND:                -0.503
REMARK  Name = /home/qwerty/github/datacon2025hack/step_04_hit_selection/docking/ligands/lig_778.pdb
REMARK  7 active torsions:
REMARK  status: ('A' for Active; 'I' for Inactive)
REMARK    1  A    between atoms: C1_1  and  O1_2
REMARK    2  A    between atoms: O1_2  and  C2_3
REMARK    3  A    between atoms: C6_7  and  C7_8
REMARK    4  A    between atoms: C10_13  and  N2_14
REMARK    5  A    between atoms: C11_15  and  C12_17
REMARK    6  A    between atoms: C14_19  and  C15_20
REMARK    7  A    between atoms: C16_21  and  C17_22
REMARK                            x       y       z     vdW  Elec       q    Type
REMARK                         _______ _______ _______ _____ _____    ______ ____
ROOT
ATOM      1  C7  UNL     1      15.132  13.373  36.318  0.00  0.00    +0.265 C 
ATOM      2  O2  UNL     1      15.597  14.433  36.818  0.00  0.00    -0.268 OA
ATOM      3  N1  UNL     1      16.034  12.356  35.847  0.00  0.00    -0.294 N 
ATOM      4  C8  UNL     1      15.809  11.582  34.635  0.00  0.00    +0.110 C 
ATOM      5  C9  UNL     1      17.045  10.709  34.473  0.00  0.00    +0.043 C 
ATOM      6  C10 UNL     1      18.135  11.381  35.313  0.00  0.00    +0.092 C 
ATOM      7  C18 UNL     1      17.384  12.204  36.365  0.00  0.00    +0.130 C 
ENDROOT
BRANCH   1  12
ATOM      8  C2  UNL     1      11.718  11.991  36.834  0.00  0.00    +0.215 A 
ATOM      9  C3  UNL     1      10.923  12.821  36.040  0.00  0.00    +0.067 A 
ATOM     10  C4  UNL     1      11.521  13.853  35.316  0.00  0.00    +0.007 A 
ATOM     11  C5  UNL     1      12.900  14.053  35.397  0.00  0.00    +0.033 A 
ATOM     12  C6  UNL     1      13.669  13.217  36.222  0.00  0.00    +0.129 A 
ATOM     13  N3  UNL     1      13.062  12.204  36.900  0.00  0.00    -0.208 NA
BRANCH   8  15
ATOM     14  C1  UNL     1      10.900   9.660  36.989  0.00  0.00    +0.279 C 
ATOM     15  O1  UNL     1      11.122  10.948  37.550  0.00  0.00    -0.480 OA
ENDBRANCH   8  15
ENDBRANCH   1  12
BRANCH   6  16
ATOM     16  N2  UNL     1      19.038  10.393  35.913  0.00  0.00    -0.304 N 
ATOM     17  C11 UNL     1      20.248   9.982  35.256  0.00  0.00    +0.280 C 
ATOM     18  O3  UNL     1      20.587  10.521  34.167  0.00  0.00    -0.267 OA
ATOM     19  H12 UNL     1      18.827  10.017  36.863  0.00  0.00    +0.149 HD
BRANCH  17  20
ATOM     20  C12 UNL     1      21.116   8.939  35.829  0.00  0.00    +0.190 A 
ATOM     21  C13 UNL     1      21.110   8.475  37.135  0.00  0.00    +0.058 A 
ATOM     22  C14 UNL     1      22.095   7.510  37.186  0.00  0.00    -0.009 A 
ATOM     23  C15 UNL     1      22.452   6.665  38.367  0.00  0.00    +0.047 C 
ATOM     24  C16 UNL     1      22.628   7.431  35.912  0.00  0.00    +0.106 A 
ATOM     25  C17 UNL     1      23.720   6.517  35.465  0.00  0.00    +0.086 C 
ATOM     26  O4  UNL     1      22.028   8.298  35.129  0.00  0.00    -0.455 OA
ENDBRANCH  17  20
ENDBRANCH   6  16
TORSDOF 4
ENDMDL
MODEL 9
REMARK VINA RESULT:    -5.690     11.404     14.450
REMARK INTER + INTRA:          -7.524
REMARK INTER:                  -7.105
REMARK INTRA:                  -0.418
REMARK UNBOUND:                -0.503
REMARK  Name = /home/qwerty/github/datacon2025hack/step_04_hit_selection/docking/ligands/lig_778.pdb
REMARK  7 active torsions:
REMARK  status: ('A' for Active; 'I' for Inactive)
REMARK    1  A    between atoms: C1_1  and  O1_2
REMARK    2  A    between atoms: O1_2  and  C2_3
REMARK    3  A    between atoms: C6_7  and  C7_8
REMARK    4  A    between atoms: C10_13  and  N2_14
REMARK    5  A    between atoms: C11_15  and  C12_17
REMARK    6  A    between atoms: C14_19  and  C15_20
REMARK    7  A    between atoms: C16_21  and  C17_22
REMARK                            x       y       z     vdW  Elec       q    Type
REMARK                         _______ _______ _______ _____ _____    ______ ____
ROOT
ATOM      1  C7  UNL     1      15.865  11.078  35.846  0.00  0.00    +0.265 C 
ATOM      2  O2  UNL     1      15.306   9.962  36.026  0.00  0.00    -0.268 OA
ATOM      3  N1  UNL     1      17.301  11.156  35.827  0.00  0.00    -0.294 N 
ATOM      4  C8  UNL     1      18.055  12.247  36.428  0.00  0.00    +0.110 C 
ATOM      5  C9  UNL     1      19.520  11.872  36.262  0.00  0.00    +0.043 C 
ATOM      6  C10 UNL     1      19.532  10.359  36.029  0.00  0.00    +0.092 C 
ATOM      7  C18 UNL     1      18.144  10.026  35.472  0.00  0.00    +0.130 C 
ENDROOT
BRANCH   1  12
ATOM      8  C2  UNL     1      13.884  13.751  34.184  0.00  0.00    +0.215 A 
ATOM      9  C3  UNL     1      13.484  14.553  35.255  0.00  0.00    +0.067 A 
ATOM     10  C4  UNL     1      13.877  14.212  36.550  0.00  0.00    +0.007 A 
ATOM     11  C5  UNL     1      14.656  13.074  36.764  0.00  0.00    +0.033 A 
ATOM     12  C6  UNL     1      15.021  12.274  35.671  0.00  0.00    +0.129 A 
ATOM     13  N3  UNL     1      14.642  12.643  34.416  0.00  0.00    -0.208 NA
BRANCH   8  15
ATOM     14  C1  UNL     1      12.240  14.687  32.588  0.00  0.00    +0.279 C 
ATOM     15  O1  UNL     1      13.501  14.099  32.884  0.00  0.00    -0.480 OA
ENDBRANCH   8  15
ENDBRANCH   1  12
BRANCH   6  16
ATOM     16  N2  UNL     1      20.612   9.963  35.117  0.00  0.00    -0.304 N 
ATOM     17  C11 UNL     1      21.501   8.878  35.430  0.00  0.00    +0.280 C 
ATOM     18  O3  UNL     1      21.321   8.199  36.479  0.00  0.00    -0.267 OA
ATOM     19  H12 UNL     1      20.707  10.444  34.197  0.00  0.00    +0.149 HD
BRANCH  17  20
ATOM     20  C12 UNL     1      22.626   8.529  34.547  0.00  0.00    +0.190 A 
ATOM     21  C13 UNL     1      23.319   7.329  34.514  0.00  0.00    +0.058 A 
ATOM     22  C14 UNL     1      24.275   7.483  33.532  0.00  0.00    -0.009 A 
ATOM     23  C15 UNL     1      25.250   6.449  33.069  0.00  0.00    +0.047 C 
ATOM     24  C16 UNL     1      24.099   8.754  33.016  0.00  0.00    +0.106 A 
ATOM     25  C17 UNL     1      24.892   9.381  31.917  0.00  0.00    +0.086 C 
ATOM     26  O4  UNL     1      23.114   9.353  33.644  0.00  0.00    -0.455 OA
ENDBRANCH  17  20
ENDBRANCH   6  16
TORSDOF 4
ENDMDL
