REMARK  Name = /home/qwerty/github/datacon2025hack/step_04_hit_selection/docking/ligands/lig_19.pdb
REMARK  5 active torsions:
REMARK  status: ('A' for Active; 'I' for Inactive)
REMARK    1  A    between atoms: C1_1  and  O1_2
REMARK    2  A    between atoms: O1_2  and  C2_3
REMARK    3  A    between atoms: C5_6  and  C6_7
REMARK    4  A    between atoms: C10_13  and  C11_14
REMARK    5  A    between atoms: C15_20  and  N3_21
REMARK                            x       y       z     vdW  Elec       q    Type
REMARK                         _______ _______ _______ _____ _____    ______ ____
ROOT
ATOM      1  C6  UNL     1       2.049   1.336  -0.029  0.00  0.00    +0.247 C 
ATOM      2  O2  UNL     1       2.036   2.593  -0.130  0.00  0.00    -0.270 OA
ATOM      3  N1  UNL     1       0.805   0.618   0.098  0.00  0.00    -0.297 N 
ATOM      4  C7  UNL     1       0.736  -0.671   0.805  0.00  0.00    +0.108 C 
ATOM      5  C8  UNL     1      -0.063  -1.699  -0.013  0.00  0.00    +0.020 C 
ATOM      6  C9  UNL     1      -1.270  -1.093  -0.764  0.00  0.00    +0.016 C 
ATOM      7  C10 UNL     1      -1.647   0.305  -0.245  0.00  0.00    +0.092 C 
ATOM      8  C17 UNL     1      -0.434   1.252  -0.381  0.00  0.00    +0.120 C 
ENDROOT
BRANCH   1  12
ATOM      9  C2  UNL     1       5.784  -0.765  -0.488  0.00  0.00    +0.146 A 
ATOM     10  C3  UNL     1       4.654  -1.095  -1.255  0.00  0.00    +0.048 A 
ATOM     11  C4  UNL     1       3.454  -0.407  -1.081  0.00  0.00    +0.017 A 
ATOM     12  C5  UNL     1       3.343   0.622  -0.134  0.00  0.00    +0.046 A 
ATOM     13  C18 UNL     1       4.469   0.960   0.657  0.00  0.00    +0.016 A 
ATOM     14  C19 UNL     1       4.424   1.950   1.658  0.00  0.00    +0.012 A 
ATOM     15  C20 UNL     1       5.562   2.245   2.408  0.00  0.00    +0.020 A 
ATOM     16  C21 UNL     1       6.743   1.545   2.170  0.00  0.00    +0.111 A 
ATOM     17  N4  UNL     1       6.779   0.576   1.220  0.00  0.00    -0.251 NA
ATOM     18  C22 UNL     1       5.690   0.260   0.466  0.00  0.00    +0.113 A 
BRANCH   9  20
ATOM     19  C1  UNL     1       7.242  -2.490  -1.566  0.00  0.00    +0.277 C 
ATOM     20  O1  UNL     1       7.010  -1.432  -0.642  0.00  0.00    -0.493 OA
ENDBRANCH   9  20
ENDBRANCH   1  12
BRANCH   7  21
ATOM     21  C11 UNL     1      -2.858   0.837  -0.989  0.00  0.00    +0.220 C 
ATOM     22  O3  UNL     1      -2.694   1.289  -2.157  0.00  0.00    -0.275 OA
ATOM     23  N2  UNL     1      -4.193   0.781  -0.428  0.00  0.00    -0.300 N 
ATOM     24  C12 UNL     1      -5.304   1.494  -1.080  0.00  0.00    +0.108 C 
ATOM     25  C13 UNL     1      -6.472   0.535  -1.361  0.00  0.00    +0.020 C 
ATOM     26  C14 UNL     1      -6.727  -0.478  -0.223  0.00  0.00    +0.021 C 
ATOM     27  C15 UNL     1      -5.985  -0.115   1.074  0.00  0.00    +0.068 C 
ATOM     28  C16 UNL     1      -4.469   0.011   0.799  0.00  0.00    +0.126 C 
BRANCH  27  29
ATOM     29  N3  UNL     1      -6.256  -1.117   2.106  0.00  0.00    -0.326 NA
ATOM     30  H20 UNL     1      -5.847  -2.037   1.818  0.00  0.00    +0.119 HD
ATOM     31  H21 UNL     1      -5.776  -0.826   2.989  0.00  0.00    +0.119 HD
ENDBRANCH  27  29
ENDBRANCH   7  21
TORSDOF 4
