REMARK  Name = /home/qwerty/github/datacon2025hack/step_04_hit_selection/docking/ligands/lig_101.pdb
REMARK  10 active torsions:
REMARK  status: ('A' for Active; 'I' for Inactive)
REMARK    1  A    between atoms: C1_1  and  O1_2
REMARK    2  A    between atoms: O1_2  and  C2_3
REMARK    3  A    between atoms: C11_12  and  C12_13
REMARK    4  A    between atoms: C12_13  and  N1_14
REMARK    5  A    between atoms: N2_17  and  C14_18
REMARK    6  A    between atoms: C17_21  and  C18_22
REMARK    7  A    between atoms: C19_23  and  C20_24
REMARK    8  A    between atoms: N3_26  and  C21_27
REMARK    9  A    between atoms: C21_27  and  C22_28
REMARK   10  A    between atoms: C21_27  and  C23_29
REMARK                            x       y       z     vdW  Elec       q    Type
REMARK                         _______ _______ _______ _____ _____    ______ ____
ROOT
ATOM      1  N1  UNL     1      -1.220   0.848   0.116  0.00  0.00    -0.299 N 
ATOM      2  C13 UNL     1      -0.025   0.722  -0.664  0.00  0.00    +0.304 C 
ATOM      3  O2  UNL     1      -0.067   0.162  -1.794  0.00  0.00    -0.253 OA
ATOM      4  N2  UNL     1       1.222   1.198  -0.134  0.00  0.00    -0.269 N 
ATOM      5  H16 UNL     1      -1.158   1.331   1.041  0.00  0.00    +0.150 HD
ATOM      6  H17 UNL     1       1.261   1.415   0.887  0.00  0.00    +0.156 HD
ENDROOT
BRANCH   4   7
ATOM      7  C14 UNL     1       2.446   1.262  -0.886  0.00  0.00    +0.035 A 
ATOM      8  C15 UNL     1       2.452   1.611  -2.244  0.00  0.00    +0.023 A 
ATOM      9  C16 UNL     1       3.655   1.687  -2.948  0.00  0.00    +0.006 A 
ATOM     10  C17 UNL     1       4.878   1.419  -2.311  0.00  0.00    -0.038 A 
ATOM     11  C18 UNL     1       6.146   1.486  -3.122  0.00  0.00    +0.044 C 
ATOM     12  C19 UNL     1       4.886   1.108  -0.927  0.00  0.00    +0.041 A 
ATOM     13  C24 UNL     1       3.665   1.036  -0.233  0.00  0.00    +0.036 A 
BRANCH  12  14
ATOM     14  C20 UNL     1       6.145   0.871  -0.180  0.00  0.00    +0.245 C 
ATOM     15  O3  UNL     1       7.153   1.596  -0.404  0.00  0.00    -0.270 OA
ATOM     16  N3  UNL     1       6.217  -0.166   0.812  0.00  0.00    -0.309 N 
ATOM     17  H23 UNL     1       5.404  -0.814   0.922  0.00  0.00    +0.149 HD
BRANCH  16  18
ATOM     18  C21 UNL     1       7.427  -0.410   1.602  0.00  0.00    +0.067 C 
ATOM     19  C22 UNL     1       8.432  -1.222   0.781  0.00  0.00    +0.027 C 
ATOM     20  C23 UNL     1       7.073  -1.145   2.899  0.00  0.00    +0.027 C 
ENDBRANCH  16  18
ENDBRANCH  12  14
ENDBRANCH   4   7
BRANCH   1  21
ATOM     21  C12 UNL     1      -2.510   0.362  -0.376  0.00  0.00    +0.114 C 
BRANCH  21  31
ATOM     22  C2  UNL     1      -7.540  -0.408  -0.966  0.00  0.00    +0.120 A 
ATOM     23  C3  UNL     1      -6.737   0.606  -1.489  0.00  0.00    +0.046 A 
ATOM     24  C4  UNL     1      -5.483   0.875  -0.939  0.00  0.00    +0.008 A 
ATOM     25  C5  UNL     1      -4.985   0.113   0.135  0.00  0.00    -0.039 A 
ATOM     26  C6  UNL     1      -5.831  -0.865   0.716  0.00  0.00    -0.040 A 
ATOM     27  C7  UNL     1      -7.082  -1.142   0.141  0.00  0.00    +0.049 A 
ATOM     28  C8  UNL     1      -5.407  -1.640   1.936  0.00  0.00    +0.035 C 
ATOM     29  C9  UNL     1      -4.413  -0.841   2.773  0.00  0.00    +0.005 C 
ATOM     30  C10 UNL     1      -3.213  -0.463   1.912  0.00  0.00    +0.010 C 
ATOM     31  C11 UNL     1      -3.607   0.442   0.716  0.00  0.00    +0.036 C 
BRANCH  22  33
ATOM     32  C1  UNL     1      -9.706  -1.647  -1.140  0.00  0.00    +0.277 C 
ATOM     33  O1  UNL     1      -8.785  -0.648  -1.567  0.00  0.00    -0.495 OA
ENDBRANCH  22  33
ENDBRANCH  21  31
ENDBRANCH   1  21
TORSDOF 6
