MODEL 1
REMARK VINA RESULT:    -7.075      0.000      0.000
REMARK INTER + INTRA:          -8.259
REMARK INTER:                  -7.902
REMARK INTRA:                  -0.358
REMARK UNBOUND:                -0.358
REMARK  Name = /home/qwerty/github/datacon2025hack/step_04_hit_selection/docking/ligands/lig_389.pdb
REMARK  3 active torsions:
REMARK  status: ('A' for Active; 'I' for Inactive)
REMARK    1  A    between atoms: C1_1  and  C2_2
REMARK    2  A    between atoms: N2_7  and  C5_8
REMARK    3  A    between atoms: C8_11  and  N3_12
REMARK                            x       y       z     vdW  Elec       q    Type
REMARK                         _______ _______ _______ _____ _____    ______ ____
ROOT
ATOM      1  C5  UNL     1      21.165   4.522  31.687  0.00  0.00    +0.044 A 
ATOM      2  C6  UNL     1      21.417   5.425  30.649  0.00  0.00    +0.026 A 
ATOM      3  C7  UNL     1      21.471   4.992  29.326  0.00  0.00    +0.025 A 
ATOM      4  C8  UNL     1      21.286   3.643  29.010  0.00  0.00    +0.038 A 
ATOM      5  C13 UNL     1      21.068   2.704  30.044  0.00  0.00    +0.008 A 
ATOM      6  C14 UNL     1      20.913   1.333  29.766  0.00  0.00    +0.030 A 
ATOM      7  C15 UNL     1      20.733   0.431  30.814  0.00  0.00    +0.111 A 
ATOM      8  N4  UNL     1      20.716   0.868  32.098  0.00  0.00    -0.263 NA
ATOM      9  C16 UNL     1      20.857   2.183  32.410  0.00  0.00    +0.121 A 
ATOM     10  C17 UNL     1      21.019   3.144  31.393  0.00  0.00    +0.023 A 
ENDROOT
BRANCH   1  17
ATOM     11  C1  UNL     1      21.641   9.149  35.491  0.00  0.00    +0.029 C 
ATOM     12  C2  UNL     1      21.009   7.992  36.273  0.00  0.00    +0.087 C 
ATOM     13  C3  UNL     1      20.809   6.752  35.392  0.00  0.00    +0.131 C 
ATOM     14  N1  UNL     1      22.099   6.145  35.019  0.00  0.00    -0.275 N 
ATOM     15  C4  UNL     1      22.235   5.477  33.749  0.00  0.00    +0.307 C 
ATOM     16  O1  UNL     1      23.386   5.273  33.270  0.00  0.00    -0.252 OA
ATOM     17  N2  UNL     1      21.077   5.025  33.027  0.00  0.00    -0.269 N 
ATOM     18  C18 UNL     1      23.247   6.119  35.946  0.00  0.00    +0.205 C 
ATOM     19  C19 UNL     1      22.938   6.743  37.277  0.00  0.00    +0.231 C 
ATOM     20  O3  UNL     1      23.670   6.488  38.270  0.00  0.00    -0.274 OA
ATOM     21  N5  UNL     1      21.842   7.649  37.419  0.00  0.00    -0.310 N 
ATOM     22  H7  UNL     1      20.202   4.832  33.563  0.00  0.00    +0.156 HD
ATOM     23  H23 UNL     1      21.604   8.030  38.362  0.00  0.00    +0.149 HD
ENDBRANCH   1  17
BRANCH   4  24
ATOM     24  N3  UNL     1      21.338   3.251  27.631  0.00  0.00    -0.325 N 
ATOM     25  C9  UNL     1      22.606   2.821  27.040  0.00  0.00    +0.133 C 
ATOM     26  C10 UNL     1      22.632   3.198  25.555  0.00  0.00    +0.178 C 
ATOM     27  O2  UNL     1      21.465   2.737  24.898  0.00  0.00    -0.377 OA
ATOM     28  C11 UNL     1      20.329   3.410  25.409  0.00  0.00    +0.178 C 
ATOM     29  C12 UNL     1      20.098   3.050  26.880  0.00  0.00    +0.133 C 
ENDBRANCH   4  24
TORSDOF 2
ENDMDL
MODEL 2
REMARK VINA RESULT:    -6.959     12.124     13.274
REMARK INTER + INTRA:          -8.130
REMARK INTER:                  -7.748
REMARK INTRA:                  -0.382
REMARK UNBOUND:                -0.358
REMARK  Name = /home/qwerty/github/datacon2025hack/step_04_hit_selection/docking/ligands/lig_389.pdb
REMARK  3 active torsions:
REMARK  status: ('A' for Active; 'I' for Inactive)
REMARK    1  A    between atoms: C1_1  and  C2_2
REMARK    2  A    between atoms: N2_7  and  C5_8
REMARK    3  A    between atoms: C8_11  and  N3_12
REMARK                            x       y       z     vdW  Elec       q    Type
REMARK                         _______ _______ _______ _____ _____    ______ ____
ROOT
ATOM      1  C5  UNL     1      12.340  12.485  31.873  0.00  0.00    +0.044 A 
ATOM      2  C6  UNL     1      11.649  11.330  32.254  0.00  0.00    +0.026 A 
ATOM      3  C7  UNL     1      10.674  10.779  31.426  0.00  0.00    +0.025 A 
ATOM      4  C8  UNL     1      10.359  11.374  30.202  0.00  0.00    +0.038 A 
ATOM      5  C13 UNL     1      11.015  12.564  29.811  0.00  0.00    +0.008 A 
ATOM      6  C14 UNL     1      10.698  13.212  28.603  0.00  0.00    +0.030 A 
ATOM      7  C15 UNL     1      11.343  14.401  28.265  0.00  0.00    +0.111 A 
ATOM      8  N4  UNL     1      12.265  14.940  29.101  0.00  0.00    -0.263 NA
ATOM      9  C16 UNL     1      12.604  14.346  30.274  0.00  0.00    +0.121 A 
ATOM     10  C17 UNL     1      12.005  13.130  30.658  0.00  0.00    +0.023 A 
ENDROOT
BRANCH   1  17
ATOM     11  C1  UNL     1      15.137  12.293  37.188  0.00  0.00    +0.029 C 
ATOM     12  C2  UNL     1      15.969  13.205  36.280  0.00  0.00    +0.087 C 
ATOM     13  C3  UNL     1      15.364  13.311  34.873  0.00  0.00    +0.131 C 
ATOM     14  N1  UNL     1      14.088  14.048  34.891  0.00  0.00    -0.275 N 
ATOM     15  C4  UNL     1      13.054  13.713  33.945  0.00  0.00    +0.307 C 
ATOM     16  O1  UNL     1      11.863  14.070  34.167  0.00  0.00    -0.252 OA
ATOM     17  N2  UNL     1      13.364  12.990  32.742  0.00  0.00    -0.269 N 
ATOM     18  C18 UNL     1      13.860  15.191  35.797  0.00  0.00    +0.205 C 
ATOM     19  C19 UNL     1      15.056  15.511  36.647  0.00  0.00    +0.231 C 
ATOM     20  O3  UNL     1      15.146  16.642  37.195  0.00  0.00    -0.274 OA
ATOM     21  N5  UNL     1      16.074  14.534  36.868  0.00  0.00    -0.310 N 
ATOM     22  H7  UNL     1      14.337  13.040  32.368  0.00  0.00    +0.156 HD
ATOM     23  H23 UNL     1      16.928  14.790  37.413  0.00  0.00    +0.149 HD
ENDBRANCH   1  17
BRANCH   4  24
ATOM     24  N3  UNL     1       9.357  10.759  29.380  0.00  0.00    -0.325 N 
ATOM     25  C9  UNL     1       7.946  11.099  29.569  0.00  0.00    +0.133 C 
ATOM     26  C10 UNL     1       7.077   9.885  29.224  0.00  0.00    +0.178 C 
ATOM     27  O2  UNL     1       7.416   9.370  27.948  0.00  0.00    -0.377 OA
ATOM     28  C11 UNL     1       8.736   8.858  27.972  0.00  0.00    +0.178 C 
ATOM     29  C12 UNL     1       9.751   9.982  28.204  0.00  0.00    +0.133 C 
ENDBRANCH   4  24
TORSDOF 2
ENDMDL
MODEL 3
REMARK VINA RESULT:    -6.867      4.588     11.160
REMARK INTER + INTRA:          -8.028
REMARK INTER:                  -7.665
REMARK INTRA:                  -0.363
REMARK UNBOUND:                -0.358
REMARK  Name = /home/qwerty/github/datacon2025hack/step_04_hit_selection/docking/ligands/lig_389.pdb
REMARK  3 active torsions:
REMARK  status: ('A' for Active; 'I' for Inactive)
REMARK    1  A    between atoms: C1_1  and  C2_2
REMARK    2  A    between atoms: N2_7  and  C5_8
REMARK    3  A    between atoms: C8_11  and  N3_12
REMARK                            x       y       z     vdW  Elec       q    Type
REMARK                         _______ _______ _______ _____ _____    ______ ____
ROOT
ATOM      1  C5  UNL     1      18.540   1.446  26.320  0.00  0.00    +0.044 A 
ATOM      2  C6  UNL     1      17.721   1.053  27.384  0.00  0.00    +0.026 A 
ATOM      3  C7  UNL     1      18.190   1.096  28.695  0.00  0.00    +0.025 A 
ATOM      4  C8  UNL     1      19.491   1.522  28.973  0.00  0.00    +0.038 A 
ATOM      5  C13 UNL     1      20.352   1.888  27.912  0.00  0.00    +0.008 A 
ATOM      6  C14 UNL     1      21.679   2.288  28.151  0.00  0.00    +0.030 A 
ATOM      7  C15 UNL     1      22.509   2.610  27.078  0.00  0.00    +0.111 A 
ATOM      8  N4  UNL     1      22.044   2.530  25.806  0.00  0.00    -0.263 NA
ATOM      9  C16 UNL     1      20.768   2.154  25.531  0.00  0.00    +0.121 A 
ATOM     10  C17 UNL     1      19.876   1.839  26.575  0.00  0.00    +0.023 A 
ENDROOT
BRANCH   1  17
ATOM     11  C1  UNL     1      13.997   0.057  22.639  0.00  0.00    +0.029 C 
ATOM     12  C2  UNL     1      14.991   0.893  21.824  0.00  0.00    +0.087 C 
ATOM     13  C3  UNL     1      16.192   1.334  22.672  0.00  0.00    +0.131 C 
ATOM     14  N1  UNL     1      17.044   0.189  23.035  0.00  0.00    -0.275 N 
ATOM     15  C4  UNL     1      17.757   0.194  24.288  0.00  0.00    +0.307 C 
ATOM     16  O1  UNL     1      18.190  -0.891  24.765  0.00  0.00    -0.252 OA
ATOM     17  N2  UNL     1      17.996   1.424  24.992  0.00  0.00    -0.269 N 
ATOM     18  C18 UNL     1      17.267  -0.941  22.112  0.00  0.00    +0.205 C 
ATOM     19  C19 UNL     1      16.562  -0.769  20.796  0.00  0.00    +0.231 C 
ATOM     20  O3  UNL     1      16.929  -1.448  19.800  0.00  0.00    -0.274 OA
ATOM     21  N5  UNL     1      15.460   0.130  20.674  0.00  0.00    -0.310 N 
ATOM     22  H7  UNL     1      18.004   2.315  24.449  0.00  0.00    +0.156 HD
ATOM     23  H23 UNL     1      15.017   0.283  19.740  0.00  0.00    +0.149 HD
ENDBRANCH   1  17
BRANCH   4  24
ATOM     24  N3  UNL     1      19.920   1.560  30.341  0.00  0.00    -0.325 N 
ATOM     25  C9  UNL     1      20.558   0.387  30.941  0.00  0.00    +0.133 C 
ATOM     26  C10 UNL     1      20.225   0.334  32.436  0.00  0.00    +0.178 C 
ATOM     27  O2  UNL     1      20.515   1.572  33.061  0.00  0.00    -0.377 OA
ATOM     28  C11 UNL     1      19.660   2.579  32.549  0.00  0.00    +0.178 C 
ATOM     29  C12 UNL     1      19.944   2.832  31.066  0.00  0.00    +0.133 C 
ENDBRANCH   4  24
TORSDOF 2
ENDMDL
MODEL 4
REMARK VINA RESULT:    -6.695     13.559     16.931
REMARK INTER + INTRA:          -7.836
REMARK INTER:                  -7.427
REMARK INTRA:                  -0.408
REMARK UNBOUND:                -0.358
REMARK  Name = /home/qwerty/github/datacon2025hack/step_04_hit_selection/docking/ligands/lig_389.pdb
REMARK  3 active torsions:
REMARK  status: ('A' for Active; 'I' for Inactive)
REMARK    1  A    between atoms: C1_1  and  C2_2
REMARK    2  A    between atoms: N2_7  and  C5_8
REMARK    3  A    between atoms: C8_11  and  N3_12
REMARK                            x       y       z     vdW  Elec       q    Type
REMARK                         _______ _______ _______ _____ _____    ______ ____
ROOT
ATOM      1  C5  UNL     1       9.810   9.326  25.507  0.00  0.00    +0.044 A 
ATOM      2  C6  UNL     1      10.929  10.107  25.199  0.00  0.00    +0.026 A 
ATOM      3  C7  UNL     1      11.320  11.150  26.036  0.00  0.00    +0.025 A 
ATOM      4  C8  UNL     1      10.596  11.443  27.195  0.00  0.00    +0.038 A 
ATOM      5  C13 UNL     1       9.439  10.693  27.508  0.00  0.00    +0.008 A 
ATOM      6  C14 UNL     1       8.665  10.983  28.647  0.00  0.00    +0.030 A 
ATOM      7  C15 UNL     1       7.512  10.243  28.907  0.00  0.00    +0.111 A 
ATOM      8  N4  UNL     1       7.130   9.254  28.062  0.00  0.00    -0.263 NA
ATOM      9  C16 UNL     1       7.850   8.938  26.954  0.00  0.00    +0.121 A 
ATOM     10  C17 UNL     1       9.037   9.634  26.652  0.00  0.00    +0.023 A 
ENDROOT
BRANCH   1  17
ATOM     11  C1  UNL     1      10.581   6.508  20.256  0.00  0.00    +0.029 C 
ATOM     12  C2  UNL     1       9.736   5.582  21.138  0.00  0.00    +0.087 C 
ATOM     13  C3  UNL     1       9.494   6.187  22.528  0.00  0.00    +0.131 C 
ATOM     14  N1  UNL     1       8.609   7.362  22.455  0.00  0.00    -0.275 N 
ATOM     15  C4  UNL     1       8.773   8.442  23.397  0.00  0.00    +0.307 C 
ATOM     16  O1  UNL     1       8.284   9.577  23.138  0.00  0.00    -0.252 OA
ATOM     17  N2  UNL     1       9.474   8.237  24.635  0.00  0.00    -0.269 N 
ATOM     18  C18 UNL     1       7.489   7.438  21.497  0.00  0.00    +0.205 C 
ATOM     19  C19 UNL     1       7.355   6.202  20.655  0.00  0.00    +0.231 C 
ATOM     20  O3  UNL     1       6.269   5.968  20.060  0.00  0.00    -0.274 OA
ATOM     21  N5  UNL     1       8.457   5.308  20.495  0.00  0.00    -0.310 N 
ATOM     22  H7  UNL     1       9.525   7.269  25.023  0.00  0.00    +0.156 HD
ATOM     23  H23 UNL     1       8.332   4.422  19.954  0.00  0.00    +0.149 HD
ENDBRANCH   1  17
BRANCH   4  24
ATOM     24  N3  UNL     1      11.048  12.519  28.029  0.00  0.00    -0.325 N 
ATOM     25  C9  UNL     1      10.568  13.880  27.793  0.00  0.00    +0.133 C 
ATOM     26  C10 UNL     1      11.657  14.883  28.189  0.00  0.00    +0.178 C 
ATOM     27  O2  UNL     1      12.130  14.621  29.498  0.00  0.00    -0.377 OA
ATOM     28  C11 UNL     1      12.784  13.366  29.529  0.00  0.00    +0.178 C 
ATOM     29  C12 UNL     1      11.794  12.230  29.255  0.00  0.00    +0.133 C 
ENDBRANCH   4  24
TORSDOF 2
ENDMDL
MODEL 5
REMARK VINA RESULT:    -6.439      5.083      8.523
REMARK INTER + INTRA:          -7.550
REMARK INTER:                  -7.011
REMARK INTRA:                  -0.538
REMARK UNBOUND:                -0.358
REMARK  Name = /home/qwerty/github/datacon2025hack/step_04_hit_selection/docking/ligands/lig_389.pdb
REMARK  3 active torsions:
REMARK  status: ('A' for Active; 'I' for Inactive)
REMARK    1  A    between atoms: C1_1  and  C2_2
REMARK    2  A    between atoms: N2_7  and  C5_8
REMARK    3  A    between atoms: C8_11  and  N3_12
REMARK                            x       y       z     vdW  Elec       q    Type
REMARK                         _______ _______ _______ _____ _____    ______ ____
ROOT
ATOM      1  C5  UNL     1      18.086   1.195  25.648  0.00  0.00    +0.044 A 
ATOM      2  C6  UNL     1      17.699   2.484  25.268  0.00  0.00    +0.026 A 
ATOM      3  C7  UNL     1      16.851   2.680  24.179  0.00  0.00    +0.025 A 
ATOM      4  C8  UNL     1      16.379   1.593  23.439  0.00  0.00    +0.038 A 
ATOM      5  C13 UNL     1      16.786   0.282  23.780  0.00  0.00    +0.008 A 
ATOM      6  C14 UNL     1      16.360  -0.833  23.035  0.00  0.00    +0.030 A 
ATOM      7  C15 UNL     1      16.808  -2.108  23.380  0.00  0.00    +0.111 A 
ATOM      8  N4  UNL     1      17.660  -2.274  24.422  0.00  0.00    -0.263 NA
ATOM      9  C16 UNL     1      18.092  -1.226  25.170  0.00  0.00    +0.121 A 
ATOM     10  C17 UNL     1      17.655   0.082  24.885  0.00  0.00    +0.023 A 
ENDROOT
BRANCH   1  17
ATOM     11  C1  UNL     1      21.381   3.732  29.985  0.00  0.00    +0.029 C 
ATOM     12  C2  UNL     1      21.265   2.243  30.328  0.00  0.00    +0.087 C 
ATOM     13  C3  UNL     1      20.415   1.487  29.298  0.00  0.00    +0.131 C 
ATOM     14  N1  UNL     1      21.096   1.406  27.994  0.00  0.00    -0.275 N 
ATOM     15  C4  UNL     1      20.320   1.394  26.779  0.00  0.00    +0.307 C 
ATOM     16  O1  UNL     1      20.873   1.680  25.681  0.00  0.00    -0.252 OA
ATOM     17  N2  UNL     1      18.926   1.044  26.801  0.00  0.00    -0.269 N 
ATOM     18  C18 UNL     1      22.560   1.248  27.886  0.00  0.00    +0.205 C 
ATOM     19  C19 UNL     1      23.238   1.157  29.224  0.00  0.00    +0.231 C 
ATOM     20  O3  UNL     1      24.399   0.676  29.302  0.00  0.00    -0.274 OA
ATOM     21  N5  UNL     1      22.591   1.642  30.401  0.00  0.00    -0.310 N 
ATOM     22  H7  UNL     1      18.575   0.448  27.584  0.00  0.00    +0.156 HD
ATOM     23  H23 UNL     1      23.050   1.520  31.332  0.00  0.00    +0.149 HD
ENDBRANCH   1  17
BRANCH   4  24
ATOM     24  N3  UNL     1      15.498   1.848  22.336  0.00  0.00    -0.325 N 
ATOM     25  C9  UNL     1      14.067   2.042  22.572  0.00  0.00    +0.133 C 
ATOM     26  C10 UNL     1      13.277   1.533  21.362  0.00  0.00    +0.178 C 
ATOM     27  O2  UNL     1      13.778   2.092  20.161  0.00  0.00    -0.377 OA
ATOM     28  C11 UNL     1      15.099   1.633  19.933  0.00  0.00    +0.178 C 
ATOM     29  C12 UNL     1      16.050   2.153  21.015  0.00  0.00    +0.133 C 
ENDBRANCH   4  24
TORSDOF 2
ENDMDL
MODEL 6
REMARK VINA RESULT:    -6.185      5.252     11.379
REMARK INTER + INTRA:          -7.266
REMARK INTER:                  -6.671
REMARK INTRA:                  -0.594
REMARK UNBOUND:                -0.358
REMARK  Name = /home/qwerty/github/datacon2025hack/step_04_hit_selection/docking/ligands/lig_389.pdb
REMARK  3 active torsions:
REMARK  status: ('A' for Active; 'I' for Inactive)
REMARK    1  A    between atoms: C1_1  and  C2_2
REMARK    2  A    between atoms: N2_7  and  C5_8
REMARK    3  A    between atoms: C8_11  and  N3_12
REMARK                            x       y       z     vdW  Elec       q    Type
REMARK                         _______ _______ _______ _____ _____    ______ ____
ROOT
ATOM      1  C5  UNL     1      17.601   0.985  25.872  0.00  0.00    +0.044 A 
ATOM      2  C6  UNL     1      17.206   0.726  27.188  0.00  0.00    +0.026 A 
ATOM      3  C7  UNL     1      18.043   1.039  28.257  0.00  0.00    +0.025 A 
ATOM      4  C8  UNL     1      19.300   1.608  28.034  0.00  0.00    +0.038 A 
ATOM      5  C13 UNL     1      19.739   1.845  26.711  0.00  0.00    +0.008 A 
ATOM      6  C14 UNL     1      21.012   2.383  26.447  0.00  0.00    +0.030 A 
ATOM      7  C15 UNL     1      21.423   2.572  25.129  0.00  0.00    +0.111 A 
ATOM      8  N4  UNL     1      20.606   2.230  24.102  0.00  0.00    -0.263 NA
ATOM      9  C16 UNL     1      19.369   1.712  24.311  0.00  0.00    +0.121 A 
ATOM     10  C17 UNL     1      18.888   1.520  25.621  0.00  0.00    +0.023 A 
ENDROOT
BRANCH   1  17
ATOM     11  C1  UNL     1      15.869   1.811  20.177  0.00  0.00    +0.029 C 
ATOM     12  C2  UNL     1      15.041   0.646  20.729  0.00  0.00    +0.087 C 
ATOM     13  C3  UNL     1      15.417   0.320  22.181  0.00  0.00    +0.131 C 
ATOM     14  N1  UNL     1      15.003   1.396  23.099  0.00  0.00    -0.275 N 
ATOM     15  C4  UNL     1      15.781   1.668  24.281  0.00  0.00    +0.307 C 
ATOM     16  O1  UNL     1      15.656   2.779  24.870  0.00  0.00    -0.252 OA
ATOM     17  N2  UNL     1      16.685   0.684  24.809  0.00  0.00    -0.269 N 
ATOM     18  C18 UNL     1      13.757   2.159  22.894  0.00  0.00    +0.205 C 
ATOM     19  C19 UNL     1      12.980   1.700  21.693  0.00  0.00    +0.231 C 
ATOM     20  O3  UNL     1      11.759   1.995  21.590  0.00  0.00    -0.274 OA
ATOM     21  N5  UNL     1      13.620   0.961  20.652  0.00  0.00    -0.310 N 
ATOM     22  H7  UNL     1      16.510  -0.322  24.589  0.00  0.00    +0.156 HD
ATOM     23  H23 UNL     1      13.056   0.598  19.851  0.00  0.00    +0.149 HD
ENDBRANCH   1  17
BRANCH   4  24
ATOM     24  N3  UNL     1      20.118   1.923  29.170  0.00  0.00    -0.325 N 
ATOM     25  C9  UNL     1      19.972   3.214  29.842  0.00  0.00    +0.133 C 
ATOM     26  C10 UNL     1      21.322   3.644  30.423  0.00  0.00    +0.178 C 
ATOM     27  O2  UNL     1      21.885   2.608  31.208  0.00  0.00    -0.377 OA
ATOM     28  C11 UNL     1      22.197   1.498  30.386  0.00  0.00    +0.178 C 
ATOM     29  C12 UNL     1      20.923   0.878  29.803  0.00  0.00    +0.133 C 
ENDBRANCH   4  24
TORSDOF 2
ENDMDL
MODEL 7
REMARK VINA RESULT:    -6.176      9.672     11.714
REMARK INTER + INTRA:          -7.256
REMARK INTER:                  -6.972
REMARK INTRA:                  -0.284
REMARK UNBOUND:                -0.358
REMARK  Name = /home/qwerty/github/datacon2025hack/step_04_hit_selection/docking/ligands/lig_389.pdb
REMARK  3 active torsions:
REMARK  status: ('A' for Active; 'I' for Inactive)
REMARK    1  A    between atoms: C1_1  and  C2_2
REMARK    2  A    between atoms: N2_7  and  C5_8
REMARK    3  A    between atoms: C8_11  and  N3_12
REMARK                            x       y       z     vdW  Elec       q    Type
REMARK                         _______ _______ _______ _____ _____    ______ ____
ROOT
ATOM      1  C5  UNL     1      14.794  13.098  33.135  0.00  0.00    +0.044 A 
ATOM      2  C6  UNL     1      15.254  12.824  31.843  0.00  0.00    +0.026 A 
ATOM      3  C7  UNL     1      14.424  13.005  30.739  0.00  0.00    +0.025 A 
ATOM      4  C8  UNL     1      13.110  13.455  30.901  0.00  0.00    +0.038 A 
ATOM      5  C13 UNL     1      12.609  13.702  32.200  0.00  0.00    +0.008 A 
ATOM      6  C14 UNL     1      11.281  14.120  32.404  0.00  0.00    +0.030 A 
ATOM      7  C15 UNL     1      10.811  14.323  33.701  0.00  0.00    +0.111 A 
ATOM      8  N4  UNL     1      11.625  14.108  34.764  0.00  0.00    -0.263 NA
ATOM      9  C16 UNL     1      12.914  13.709  34.612  0.00  0.00    +0.121 A 
ATOM     10  C17 UNL     1      13.453  13.511  33.326  0.00  0.00    +0.023 A 
ENDROOT
BRANCH   1  17
ATOM     11  C1  UNL     1      20.285  11.665  35.109  0.00  0.00    +0.029 C 
ATOM     12  C2  UNL     1      19.525  12.259  36.300  0.00  0.00    +0.087 C 
ATOM     13  C3  UNL     1      18.105  12.692  35.909  0.00  0.00    +0.131 C 
ATOM     14  N1  UNL     1      17.253  11.529  35.605  0.00  0.00    -0.275 N 
ATOM     15  C4  UNL     1      16.207  11.646  34.620  0.00  0.00    +0.307 C 
ATOM     16  O1  UNL     1      15.718  10.605  34.100  0.00  0.00    -0.252 OA
ATOM     17  N2  UNL     1      15.701  12.935  34.234  0.00  0.00    -0.269 N 
ATOM     18  C18 UNL     1      17.376  10.257  36.343  0.00  0.00    +0.205 C 
ATOM     19  C19 UNL     1      18.422  10.304  37.420  0.00  0.00    +0.231 C 
ATOM     20  O3  UNL     1      18.402   9.450  38.345  0.00  0.00    -0.274 OA
ATOM     21  N5  UNL     1      19.458  11.287  37.385  0.00  0.00    -0.310 N 
ATOM     22  H7  UNL     1      15.800  13.730  34.905  0.00  0.00    +0.156 HD
ATOM     23  H23 UNL     1      20.144  11.345  38.171  0.00  0.00    +0.149 HD
ENDBRANCH   1  17
BRANCH   4  24
ATOM     24  N3  UNL     1      12.301  13.637  29.731  0.00  0.00    -0.325 N 
ATOM     25  C9  UNL     1      11.309  12.627  29.361  0.00  0.00    +0.133 C 
ATOM     26  C10 UNL     1      11.157  12.593  27.837  0.00  0.00    +0.178 C 
ATOM     27  O2  UNL     1      10.923  13.893  27.326  0.00  0.00    -0.377 OA
ATOM     28  C11 UNL     1      12.061  14.707  27.545  0.00  0.00    +0.178 C 
ATOM     29  C12 UNL     1      12.291  14.929  29.043  0.00  0.00    +0.133 C 
ENDBRANCH   4  24
TORSDOF 2
ENDMDL
MODEL 8
REMARK VINA RESULT:    -6.110     13.132     16.443
REMARK INTER + INTRA:          -7.182
REMARK INTER:                  -6.595
REMARK INTRA:                  -0.587
REMARK UNBOUND:                -0.358
REMARK  Name = /home/qwerty/github/datacon2025hack/step_04_hit_selection/docking/ligands/lig_389.pdb
REMARK  3 active torsions:
REMARK  status: ('A' for Active; 'I' for Inactive)
REMARK    1  A    between atoms: C1_1  and  C2_2
REMARK    2  A    between atoms: N2_7  and  C5_8
REMARK    3  A    between atoms: C8_11  and  N3_12
REMARK                            x       y       z     vdW  Elec       q    Type
REMARK                         _______ _______ _______ _____ _____    ______ ____
ROOT
ATOM      1  C5  UNL     1       9.867   9.452  24.804  0.00  0.00    +0.044 A 
ATOM      2  C6  UNL     1      10.874  10.421  24.863  0.00  0.00    +0.026 A 
ATOM      3  C7  UNL     1      11.056  11.190  26.010  0.00  0.00    +0.025 A 
ATOM      4  C8  UNL     1      10.228  11.016  27.123  0.00  0.00    +0.038 A 
ATOM      5  C13 UNL     1       9.178  10.070  27.075  0.00  0.00    +0.008 A 
ATOM      6  C14 UNL     1       8.302   9.893  28.162  0.00  0.00    +0.030 A 
ATOM      7  C15 UNL     1       7.258   8.974  28.067  0.00  0.00    +0.111 A 
ATOM      8  N4  UNL     1       7.078   8.259  26.929  0.00  0.00    -0.263 NA
ATOM      9  C16 UNL     1       7.902   8.395  25.858  0.00  0.00    +0.121 A 
ATOM     10  C17 UNL     1       8.989   9.290  25.903  0.00  0.00    +0.023 A 
ENDROOT
BRANCH   1  17
ATOM     11  C1  UNL     1       7.994   4.392  22.159  0.00  0.00    +0.029 C 
ATOM     12  C2  UNL     1       8.437   5.341  21.041  0.00  0.00    +0.087 C 
ATOM     13  C3  UNL     1       8.914   6.690  21.596  0.00  0.00    +0.131 C 
ATOM     14  N1  UNL     1      10.179   6.548  22.339  0.00  0.00    -0.275 N 
ATOM     15  C4  UNL     1      10.454   7.414  23.458  0.00  0.00    +0.307 C 
ATOM     16  O1  UNL     1      11.334   7.086  24.302  0.00  0.00    -0.252 OA
ATOM     17  N2  UNL     1       9.749   8.657  23.616  0.00  0.00    -0.269 N 
ATOM     18  C18 UNL     1      11.227   5.597  21.920  0.00  0.00    +0.205 C 
ATOM     19  C19 UNL     1      10.866   4.840  20.674  0.00  0.00    +0.231 C 
ATOM     20  O3  UNL     1      11.771   4.272  20.006  0.00  0.00    -0.274 OA
ATOM     21  N5  UNL     1       9.504   4.729  20.259  0.00  0.00    -0.310 N 
ATOM     22  H7  UNL     1       9.340   9.108  22.768  0.00  0.00    +0.156 HD
ATOM     23  H23 UNL     1       9.274   4.250  19.360  0.00  0.00    +0.149 HD
ENDBRANCH   1  17
BRANCH   4  24
ATOM     24  N3  UNL     1      10.465  11.824  28.284  0.00  0.00    -0.325 N 
ATOM     25  C9  UNL     1      11.504  11.444  29.241  0.00  0.00    +0.133 C 
ATOM     26  C10 UNL     1      11.095  11.897  30.646  0.00  0.00    +0.178 C 
ATOM     27  O2  UNL     1      10.735  13.266  30.649  0.00  0.00    -0.377 OA
ATOM     28  C11 UNL     1       9.569  13.458  29.868  0.00  0.00    +0.178 C 
ATOM     29  C12 UNL     1       9.844  13.145  28.395  0.00  0.00    +0.133 C 
ENDBRANCH   4  24
TORSDOF 2
ENDMDL
MODEL 9
REMARK VINA RESULT:    -6.087      6.839     10.762
REMARK INTER + INTRA:          -7.156
REMARK INTER:                  -6.564
REMARK INTRA:                  -0.592
REMARK UNBOUND:                -0.358
REMARK  Name = /home/qwerty/github/datacon2025hack/step_04_hit_selection/docking/ligands/lig_389.pdb
REMARK  3 active torsions:
REMARK  status: ('A' for Active; 'I' for Inactive)
REMARK    1  A    between atoms: C1_1  and  C2_2
REMARK    2  A    between atoms: N2_7  and  C5_8
REMARK    3  A    between atoms: C8_11  and  N3_12
REMARK                            x       y       z     vdW  Elec       q    Type
REMARK                         _______ _______ _______ _____ _____    ______ ____
ROOT
ATOM      1  C5  UNL     1      17.323  11.207  36.240  0.00  0.00    +0.044 A 
ATOM      2  C6  UNL     1      16.686  11.763  37.355  0.00  0.00    +0.026 A 
ATOM      3  C7  UNL     1      15.373  12.220  37.269  0.00  0.00    +0.025 A 
ATOM      4  C8  UNL     1      14.668  12.141  36.064  0.00  0.00    +0.038 A 
ATOM      5  C13 UNL     1      15.303  11.619  34.913  0.00  0.00    +0.008 A 
ATOM      6  C14 UNL     1      14.637  11.558  33.675  0.00  0.00    +0.030 A 
ATOM      7  C15 UNL     1      15.305  11.067  32.554  0.00  0.00    +0.111 A 
ATOM      8  N4  UNL     1      16.594  10.659  32.651  0.00  0.00    -0.263 NA
ATOM      9  C16 UNL     1      17.273  10.696  33.827  0.00  0.00    +0.121 A 
ATOM     10  C17 UNL     1      16.644  11.159  34.999  0.00  0.00    +0.023 A 
ENDROOT
BRANCH   1  17
ATOM     11  C1  UNL     1      21.729   7.602  34.316  0.00  0.00    +0.029 C 
ATOM     12  C2  UNL     1      22.339   8.522  35.379  0.00  0.00    +0.087 C 
ATOM     13  C3  UNL     1      21.307   9.516  35.930  0.00  0.00    +0.131 C 
ATOM     14  N1  UNL     1      20.277   8.833  36.732  0.00  0.00    -0.275 N 
ATOM     15  C4  UNL     1      18.933   9.352  36.764  0.00  0.00    +0.307 C 
ATOM     16  O1  UNL     1      17.984   8.608  37.139  0.00  0.00    -0.252 OA
ATOM     17  N2  UNL     1      18.662  10.713  36.392  0.00  0.00    -0.269 N 
ATOM     18  C18 UNL     1      20.596   7.670  37.583  0.00  0.00    +0.205 C 
ATOM     19  C19 UNL     1      22.052   7.302  37.551  0.00  0.00    +0.231 C 
ATOM     20  O3  UNL     1      22.534   6.585  38.468  0.00  0.00    -0.274 OA
ATOM     21  N5  UNL     1      22.886   7.729  36.473  0.00  0.00    -0.310 N 
ATOM     22  H7  UNL     1      19.433  11.413  36.468  0.00  0.00    +0.156 HD
ATOM     23  H23 UNL     1      23.908   7.516  36.493  0.00  0.00    +0.149 HD
ENDBRANCH   1  17
BRANCH   4  24
ATOM     24  N3  UNL     1      13.314  12.613  36.033  0.00  0.00    -0.325 N 
ATOM     25  C9  UNL     1      12.223  11.734  36.453  0.00  0.00    +0.133 C 
ATOM     26  C10 UNL     1      10.957  12.077  35.660  0.00  0.00    +0.178 C 
ATOM     27  O2  UNL     1      10.682  13.465  35.725  0.00  0.00    -0.377 OA
ATOM     28  C11 UNL     1      11.709  14.188  35.072  0.00  0.00    +0.178 C 
ATOM     29  C12 UNL     1      13.040  14.034  35.814  0.00  0.00    +0.133 C 
ENDBRANCH   4  24
TORSDOF 2
ENDMDL
