REMARK  Name = /home/qwerty/github/datacon2025hack/step_04_hit_selection/docking/ligands/lig_704.pdb
REMARK  6 active torsions:
REMARK  status: ('A' for Active; 'I' for Inactive)
REMARK    1  A    between atoms: C1_1  and  O1_2
REMARK    2  A    between atoms: O1_2  and  C2_3
REMARK    3  A    between atoms: C2_3  and  C3_5
REMARK    4  A    between atoms: C5_7  and  N1_8
REMARK    5  A    between atoms: C10_15  and  C11_16
REMARK    6  A    between atoms: C14_19  and  C15_20
REMARK                            x       y       z     vdW  Elec       q    Type
REMARK                         _______ _______ _______ _____ _____    ______ ____
ROOT
ATOM      1  N1  UNL     1       0.054  -1.328  -1.884  0.00  0.00    -0.267 N 
ATOM      2  C6  UNL     1      -0.110  -2.390  -0.938  0.00  0.00    +0.307 C 
ATOM      3  O3  UNL     1       0.886  -3.088  -0.603  0.00  0.00    -0.252 OA
ATOM      4  N2  UNL     1      -1.400  -2.654  -0.363  0.00  0.00    -0.278 N 
ATOM      5  C7  UNL     1      -1.704  -3.866   0.375  0.00  0.00    +0.110 C 
ATOM      6  C8  UNL     1      -3.201  -3.811   0.653  0.00  0.00    +0.021 C 
ATOM      7  C9  UNL     1      -3.615  -2.354   0.457  0.00  0.00    +0.029 C 
ATOM      8  C10 UNL     1      -2.519  -1.721  -0.407  0.00  0.00    +0.114 C 
ATOM      9  H5  UNL     1      -0.648  -1.262  -2.655  0.00  0.00    +0.156 HD
ENDROOT
BRANCH   1  12
ATOM     10  C3  UNL     1       2.449   1.104  -0.281  0.00  0.00    +0.096 A 
ATOM     11  C4  UNL     1       1.608  -0.009  -0.469  0.00  0.00    +0.044 A 
ATOM     12  C5  UNL     1       0.998  -0.255  -1.714  0.00  0.00    +0.071 A 
ATOM     13  C16 UNL     1       1.245   0.624  -2.779  0.00  0.00    +0.147 A 
ATOM     14  F1  UNL     1       0.661   0.422  -3.987  0.00  0.00    -0.203 F 
ATOM     15  C17 UNL     1       2.091   1.720  -2.607  0.00  0.00    +0.079 A 
ATOM     16  C18 UNL     1       2.690   1.966  -1.369  0.00  0.00    +0.140 A 
ATOM     17  F2  UNL     1       3.494   3.052  -1.244  0.00  0.00    -0.205 F 
BRANCH  10  18
ATOM     18  C2  UNL     1       3.046   1.364   1.053  0.00  0.00    +0.342 C 
ATOM     19  O2  UNL     1       2.802   0.585   2.016  0.00  0.00    -0.245 OA
BRANCH  18  21
ATOM     20  C1  UNL     1       4.466   2.776   2.510  0.00  0.00    +0.280 C 
ATOM     21  O1  UNL     1       3.876   2.473   1.251  0.00  0.00    -0.464 OA
ENDBRANCH  18  21
ENDBRANCH  10  18
ENDBRANCH   1  12
BRANCH   8  22
ATOM     22  C11 UNL     1      -2.108  -0.366   0.111  0.00  0.00    +0.010 A 
ATOM     23  C12 UNL     1      -1.459  -0.115   1.318  0.00  0.00    +0.013 A 
ATOM     24  C13 UNL     1      -1.068   1.220   1.468  0.00  0.00    +0.011 A 
ATOM     25  C14 UNL     1      -1.422   2.019   0.388  0.00  0.00    -0.013 A 
ATOM     26  C15 UNL     1      -1.025   3.443   0.196  0.00  0.00    +0.051 C 
ATOM     27  S1  UNL     1      -2.188   1.067  -0.768  0.00  0.00    -0.097 S 
ENDBRANCH   8  22
TORSDOF 4
