REMARK  Name = /home/qwerty/github/datacon2025hack/step_04_hit_selection/docking/ligands/lig_756.pdb
REMARK  7 active torsions:
REMARK  status: ('A' for Active; 'I' for Inactive)
REMARK    1  A    between atoms: C1_1  and  O1_2
REMARK    2  A    between atoms: O1_2  and  C2_3
REMARK    3  A    between atoms: C4_5  and  N1_6
REMARK    4  A    between atoms: C8_12  and  C9_13
REMARK    5  A    between atoms: N4_17  and  C12_18
REMARK    6  A    between atoms: C15_21  and  O3_22
REMARK    7  A    between atoms: O3_22  and  C16_23
REMARK                            x       y       z     vdW  Elec       q    Type
REMARK                         _______ _______ _______ _____ _____    ______ ____
ROOT
ATOM      1  N1  UNL     1       1.003   0.439   0.516  0.00  0.00    -0.269 N 
ATOM      2  C5  UNL     1       0.112   0.096  -0.559  0.00  0.00    +0.306 C 
ATOM      3  O2  UNL     1       0.545  -0.546  -1.555  0.00  0.00    -0.252 OA
ATOM      4  N2  UNL     1      -1.282   0.446  -0.497  0.00  0.00    -0.285 N 
ATOM      5  C6  UNL     1      -1.875   1.217   0.582  0.00  0.00    +0.110 C 
ATOM      6  C7  UNL     1      -3.333   1.443   0.196  0.00  0.00    +0.032 C 
ATOM      7  C8  UNL     1      -3.581   0.640  -1.090  0.00  0.00    +0.074 C 
ATOM      8  C13 UNL     1      -2.225   0.091  -1.542  0.00  0.00    +0.120 C 
ATOM      9  H5  UNL     1       0.593   0.640   1.455  0.00  0.00    +0.156 HD
ENDROOT
BRANCH   1  12
ATOM     10  C2  UNL     1       4.497   0.704  -0.862  0.00  0.00    +0.139 A 
ATOM     11  C3  UNL     1       3.092   0.735  -0.782  0.00  0.00    +0.070 A 
ATOM     12  C4  UNL     1       2.437   0.392   0.412  0.00  0.00    +0.042 A 
ATOM     13  C14 UNL     1       3.196   0.054   1.539  0.00  0.00    +0.070 A 
ATOM     14  C15 UNL     1       4.601   0.018   1.475  0.00  0.00    +0.139 A 
ATOM     15  C17 UNL     1       5.243   0.339   0.269  0.00  0.00    +0.101 A 
ATOM     16 BR1  UNL     1       7.158   0.291   0.170  0.00  0.00    -0.043 Br
BRANCH  10  18
ATOM     17  C1  UNL     1       4.554   1.412  -3.264  0.00  0.00    +0.277 C 
ATOM     18  O1  UNL     1       5.182   1.032  -2.044  0.00  0.00    -0.494 OA
ENDBRANCH  10  18
BRANCH  14  19
ATOM     19  O3  UNL     1       5.388  -0.331   2.585  0.00  0.00    -0.494 OA
ATOM     20  C16 UNL     1       4.870  -0.678   3.865  0.00  0.00    +0.277 C 
ENDBRANCH  14  19
ENDBRANCH   1  12
BRANCH   7  21
ATOM     21  C9  UNL     1      -4.626  -0.444  -0.921  0.00  0.00    +0.114 A 
ATOM     22  N3  UNL     1      -5.748  -0.466  -1.675  0.00  0.00    -0.240 NA
ATOM     23  C10 UNL     1      -6.425  -1.549  -1.244  0.00  0.00    +0.130 A 
ATOM     24  C11 UNL     1      -5.714  -2.167  -0.243  0.00  0.00    +0.106 A 
ATOM     25  N4  UNL     1      -4.576  -1.480  -0.046  0.00  0.00    -0.337 N 
ATOM     26  C12 UNL     1      -3.577  -1.782   0.978  0.00  0.00    +0.150 C 
ENDBRANCH   7  21
TORSDOF 4
