MODEL 1
REMARK VINA RESULT:    -6.056      0.000      0.000
REMARK INTER + INTRA:          -7.696
REMARK INTER:                  -7.118
REMARK INTRA:                  -0.579
REMARK UNBOUND:                -0.579
REMARK  Name = /home/qwerty/github/datacon2025hack/step_04_hit_selection/docking/ligands/lig_154.pdb
REMARK  6 active torsions:
REMARK  status: ('A' for Active; 'I' for Inactive)
REMARK    1  A    between atoms: C1_1  and  C2_2
REMARK    2  A    between atoms: C4_4  and  C5_5
REMARK    3  A    between atoms: C8_10  and  N2_11
REMARK    4  A    between atoms: C9_12  and  C10_14
REMARK    5  A    between atoms: C10_14  and  C11_15
REMARK    6  A    between atoms: C16_20  and  C17_21
REMARK                            x       y       z     vdW  Elec       q    Type
REMARK                         _______ _______ _______ _____ _____    ______ ____
ROOT
ATOM      1  C5  UNL     1      17.467  -0.650  23.863  0.00  0.00    +0.285 C 
ATOM      2  O1  UNL     1      17.218  -1.777  24.371  0.00  0.00    -0.267 OA
ATOM      3  N1  UNL     1      18.269   0.297  24.595  0.00  0.00    -0.290 N 
ATOM      4  C6  UNL     1      19.261   1.150  23.955  0.00  0.00    +0.110 C 
ATOM      5  C7  UNL     1      20.296   1.454  25.029  0.00  0.00    +0.043 C 
ATOM      6  C8  UNL     1      19.567   1.240  26.355  0.00  0.00    +0.095 C 
ATOM      7  C16 UNL     1      18.477   0.202  26.036  0.00  0.00    +0.094 C 
ATOM      8  C17 UNL     1      17.179   0.493  26.796  0.00  0.00    +0.030 C 
ENDROOT
BRANCH   1  12
ATOM      9  C1  UNL     1      15.129   1.383  19.903  0.00  0.00    +0.069 C 
ATOM     10  C2  UNL     1      15.898   0.491  20.817  0.00  0.00    +0.081 A 
ATOM     11  C3  UNL     1      16.141   0.720  22.156  0.00  0.00    +0.080 A 
ATOM     12  C4  UNL     1      16.929  -0.352  22.526  0.00  0.00    +0.222 A 
ATOM     13  O3  UNL     1      17.116  -1.120  21.477  0.00  0.00    -0.350 OA
ATOM     14  N3  UNL     1      16.519  -0.638  20.426  0.00  0.00    -0.083 NA
ENDBRANCH   1  12
BRANCH   6  15
ATOM     15  N2  UNL     1      20.484   0.781  27.406  0.00  0.00    -0.310 N 
ATOM     16  C9  UNL     1      20.372   1.239  28.765  0.00  0.00    +0.220 C 
ATOM     17  O2  UNL     1      19.444   2.039  29.071  0.00  0.00    -0.275 OA
ATOM     18  H10 UNL     1      21.219   0.077  27.175  0.00  0.00    +0.149 HD
BRANCH  16  19
ATOM     19  C10 UNL     1      21.354   0.742  29.824  0.00  0.00    +0.051 C 
ATOM     20  C11 UNL     1      20.586   0.466  31.132  0.00  0.00    +0.021 C 
ATOM     21  C12 UNL     1      22.514   1.749  30.085  0.00  0.00    +0.043 C 
ATOM     22  C13 UNL     1      23.674   1.168  29.362  0.00  0.00    -0.030 C 
ATOM     23  C14 UNL     1      23.441  -0.066  28.955  0.00  0.00    -0.030 C 
ATOM     24  C15 UNL     1      22.076  -0.533  29.315  0.00  0.00    +0.043 C 
ENDBRANCH  16  19
ENDBRANCH   6  15
TORSDOF 3
ENDMDL
MODEL 2
REMARK VINA RESULT:    -6.004      7.156     10.651
REMARK INTER + INTRA:          -7.635
REMARK INTER:                  -7.254
REMARK INTRA:                  -0.381
REMARK UNBOUND:                -0.579
REMARK  Name = /home/qwerty/github/datacon2025hack/step_04_hit_selection/docking/ligands/lig_154.pdb
REMARK  6 active torsions:
REMARK  status: ('A' for Active; 'I' for Inactive)
REMARK    1  A    between atoms: C1_1  and  C2_2
REMARK    2  A    between atoms: C4_4  and  C5_5
REMARK    3  A    between atoms: C8_10  and  N2_11
REMARK    4  A    between atoms: C9_12  and  C10_14
REMARK    5  A    between atoms: C10_14  and  C11_15
REMARK    6  A    between atoms: C16_20  and  C17_21
REMARK                            x       y       z     vdW  Elec       q    Type
REMARK                         _______ _______ _______ _____ _____    ______ ____
ROOT
ATOM      1  C5  UNL     1      14.603   1.879  21.543  0.00  0.00    +0.285 C 
ATOM      2  O1  UNL     1      14.140   1.802  22.713  0.00  0.00    -0.267 OA
ATOM      3  N1  UNL     1      14.267   3.013  20.720  0.00  0.00    -0.290 N 
ATOM      4  C6  UNL     1      15.227   3.655  19.832  0.00  0.00    +0.110 C 
ATOM      5  C7  UNL     1      14.762   5.098  19.697  0.00  0.00    +0.043 C 
ATOM      6  C8  UNL     1      13.274   5.069  20.043  0.00  0.00    +0.095 C 
ATOM      7  C16 UNL     1      13.119   3.871  20.995  0.00  0.00    +0.094 C 
ATOM      8  C17 UNL     1      11.806   3.120  20.752  0.00  0.00    +0.030 C 
ENDROOT
BRANCH   1  12
ATOM      9  C1  UNL     1      17.138  -1.464  18.773  0.00  0.00    +0.069 C 
ATOM     10  C2  UNL     1      16.557  -0.670  19.893  0.00  0.00    +0.081 A 
ATOM     11  C3  UNL     1      15.666   0.376  19.765  0.00  0.00    +0.080 A 
ATOM     12  C4  UNL     1      15.483   0.801  21.067  0.00  0.00    +0.222 A 
ATOM     13  O3  UNL     1      16.217   0.054  21.861  0.00  0.00    -0.350 OA
ATOM     14  N3  UNL     1      16.886  -0.837  21.187  0.00  0.00    -0.083 NA
ENDBRANCH   1  12
BRANCH   6  15
ATOM     15  N2  UNL     1      12.840   6.330  20.657  0.00  0.00    -0.310 N 
ATOM     16  C9  UNL     1      11.496   6.822  20.512  0.00  0.00    +0.220 C 
ATOM     17  O2  UNL     1      10.657   6.141  19.859  0.00  0.00    -0.275 OA
ATOM     18  H10 UNL     1      13.510   6.873  21.245  0.00  0.00    +0.149 HD
BRANCH  16  19
ATOM     19  C10 UNL     1      11.091   8.144  21.161  0.00  0.00    +0.051 C 
ATOM     20  C11 UNL     1      10.419   7.854  22.518  0.00  0.00    +0.021 C 
ATOM     21  C12 UNL     1      10.139   8.987  20.260  0.00  0.00    +0.043 C 
ATOM     22  C13 UNL     1      11.014  10.039  19.684  0.00  0.00    -0.030 C 
ATOM     23  C14 UNL     1      12.197  10.080  20.269  0.00  0.00    -0.030 C 
ATOM     24  C15 UNL     1      12.338   9.051  21.333  0.00  0.00    +0.043 C 
ENDBRANCH  16  19
ENDBRANCH   6  15
TORSDOF 3
ENDMDL
MODEL 3
REMARK VINA RESULT:    -5.802      5.545     10.955
REMARK INTER + INTRA:          -7.398
REMARK INTER:                  -6.815
REMARK INTRA:                  -0.583
REMARK UNBOUND:                -0.579
REMARK  Name = /home/qwerty/github/datacon2025hack/step_04_hit_selection/docking/ligands/lig_154.pdb
REMARK  6 active torsions:
REMARK  status: ('A' for Active; 'I' for Inactive)
REMARK    1  A    between atoms: C1_1  and  C2_2
REMARK    2  A    between atoms: C4_4  and  C5_5
REMARK    3  A    between atoms: C8_10  and  N2_11
REMARK    4  A    between atoms: C9_12  and  C10_14
REMARK    5  A    between atoms: C10_14  and  C11_15
REMARK    6  A    between atoms: C16_20  and  C17_21
REMARK                            x       y       z     vdW  Elec       q    Type
REMARK                         _______ _______ _______ _____ _____    ______ ____
ROOT
ATOM      1  C5  UNL     1      23.002   5.722  33.596  0.00  0.00    +0.285 C 
ATOM      2  O1  UNL     1      23.965   6.200  32.937  0.00  0.00    -0.267 OA
ATOM      3  N1  UNL     1      22.148   4.733  32.989  0.00  0.00    -0.290 N 
ATOM      4  C6  UNL     1      21.625   3.587  33.721  0.00  0.00    +0.110 C 
ATOM      5  C7  UNL     1      21.392   2.504  32.677  0.00  0.00    +0.043 C 
ATOM      6  C8  UNL     1      21.252   3.253  31.353  0.00  0.00    +0.095 C 
ATOM      7  C16 UNL     1      22.073   4.540  31.545  0.00  0.00    +0.094 C 
ATOM      8  C17 UNL     1      21.409   5.742  30.867  0.00  0.00    +0.030 C 
ENDROOT
BRANCH   1  12
ATOM      9  C1  UNL     1      21.122   7.595  37.866  0.00  0.00    +0.069 C 
ATOM     10  C2  UNL     1      22.014   7.031  36.813  0.00  0.00    +0.081 A 
ATOM     11  C3  UNL     1      21.646   6.732  35.517  0.00  0.00    +0.080 A 
ATOM     12  C4  UNL     1      22.797   6.194  34.974  0.00  0.00    +0.222 A 
ATOM     13  O3  UNL     1      23.734   6.188  35.895  0.00  0.00    -0.350 OA
ATOM     14  N3  UNL     1      23.295   6.676  37.020  0.00  0.00    -0.083 NA
ENDBRANCH   1  12
BRANCH   6  15
ATOM     15  N2  UNL     1      21.734   2.446  30.225  0.00  0.00    -0.310 N 
ATOM     16  C9  UNL     1      20.995   2.341  28.996  0.00  0.00    +0.220 C 
ATOM     17  O2  UNL     1      19.913   2.979  28.870  0.00  0.00    -0.275 OA
ATOM     18  H10 UNL     1      22.656   1.960  30.298  0.00  0.00    +0.149 HD
BRANCH  16  19
ATOM     19  C10 UNL     1      21.531   1.483  27.851  0.00  0.00    +0.051 C 
ATOM     20  C11 UNL     1      22.182   0.213  28.436  0.00  0.00    +0.021 C 
ATOM     21  C12 UNL     1      22.552   2.246  26.957  0.00  0.00    +0.043 C 
ATOM     22  C13 UNL     1      21.779   2.610  25.743  0.00  0.00    -0.030 C 
ATOM     23  C14 UNL     1      20.609   1.999  25.695  0.00  0.00    -0.030 C 
ATOM     24  C15 UNL     1      20.378   1.126  26.876  0.00  0.00    +0.043 C 
ENDBRANCH  16  19
ENDBRANCH   6  15
TORSDOF 3
ENDMDL
MODEL 4
REMARK VINA RESULT:    -5.734     12.859     16.034
REMARK INTER + INTRA:          -7.318
REMARK INTER:                  -6.689
REMARK INTRA:                  -0.629
REMARK UNBOUND:                -0.579
REMARK  Name = /home/qwerty/github/datacon2025hack/step_04_hit_selection/docking/ligands/lig_154.pdb
REMARK  6 active torsions:
REMARK  status: ('A' for Active; 'I' for Inactive)
REMARK    1  A    between atoms: C1_1  and  C2_2
REMARK    2  A    between atoms: C4_4  and  C5_5
REMARK    3  A    between atoms: C8_10  and  N2_11
REMARK    4  A    between atoms: C9_12  and  C10_14
REMARK    5  A    between atoms: C10_14  and  C11_15
REMARK    6  A    between atoms: C16_20  and  C17_21
REMARK                            x       y       z     vdW  Elec       q    Type
REMARK                         _______ _______ _______ _____ _____    ______ ____
ROOT
ATOM      1  C5  UNL     1      18.671   9.011  35.094  0.00  0.00    +0.285 C 
ATOM      2  O1  UNL     1      18.282   8.871  33.903  0.00  0.00    -0.267 OA
ATOM      3  N1  UNL     1      17.764   9.540  36.080  0.00  0.00    -0.290 N 
ATOM      4  C6  UNL     1      17.703   9.038  37.446  0.00  0.00    +0.110 C 
ATOM      5  C7  UNL     1      16.284   9.313  37.923  0.00  0.00    +0.043 C 
ATOM      6  C8  UNL     1      15.780  10.449  37.034  0.00  0.00    +0.095 C 
ATOM      7  C16 UNL     1      16.568  10.295  35.722  0.00  0.00    +0.094 C 
ATOM      8  C17 UNL     1      16.938  11.654  35.120  0.00  0.00    +0.030 C 
ENDROOT
BRANCH   1  12
ATOM      9  C1  UNL     1      22.874   6.473  36.181  0.00  0.00    +0.069 C 
ATOM     10  C2  UNL     1      21.859   7.538  35.936  0.00  0.00    +0.081 A 
ATOM     11  C3  UNL     1      20.537   7.333  35.600  0.00  0.00    +0.080 A 
ATOM     12  C4  UNL     1      20.048   8.614  35.431  0.00  0.00    +0.222 A 
ATOM     13  O3  UNL     1      21.021   9.469  35.652  0.00  0.00    -0.350 OA
ATOM     14  N3  UNL     1      22.130   8.857  35.949  0.00  0.00    -0.083 NA
ENDBRANCH   1  12
BRANCH   6  15
ATOM     15  N2  UNL     1      14.329  10.367  36.827  0.00  0.00    -0.310 N 
ATOM     16  C9  UNL     1      13.489  11.534  36.867  0.00  0.00    +0.220 C 
ATOM     17  O2  UNL     1      14.015  12.666  37.060  0.00  0.00    -0.275 OA
ATOM     18  H10 UNL     1      13.892   9.443  36.611  0.00  0.00    +0.149 HD
BRANCH  16  19
ATOM     19  C10 UNL     1      11.982  11.401  36.655  0.00  0.00    +0.051 C 
ATOM     20  C11 UNL     1      11.321  10.988  37.986  0.00  0.00    +0.021 C 
ATOM     21  C12 UNL     1      11.622  10.377  35.538  0.00  0.00    +0.043 C 
ATOM     22  C13 UNL     1      11.273  11.219  34.366  0.00  0.00    -0.030 C 
ATOM     23  C14 UNL     1      11.145  12.493  34.688  0.00  0.00    -0.030 C 
ATOM     24  C15 UNL     1      11.404  12.741  36.131  0.00  0.00    +0.043 C 
ENDBRANCH  16  19
ENDBRANCH   6  15
TORSDOF 3
ENDMDL
MODEL 5
REMARK VINA RESULT:    -5.725      6.211     10.627
REMARK INTER + INTRA:          -7.307
REMARK INTER:                  -6.735
REMARK INTRA:                  -0.573
REMARK UNBOUND:                -0.579
REMARK  Name = /home/qwerty/github/datacon2025hack/step_04_hit_selection/docking/ligands/lig_154.pdb
REMARK  6 active torsions:
REMARK  status: ('A' for Active; 'I' for Inactive)
REMARK    1  A    between atoms: C1_1  and  C2_2
REMARK    2  A    between atoms: C4_4  and  C5_5
REMARK    3  A    between atoms: C8_10  and  N2_11
REMARK    4  A    between atoms: C9_12  and  C10_14
REMARK    5  A    between atoms: C10_14  and  C11_15
REMARK    6  A    between atoms: C16_20  and  C17_21
REMARK                            x       y       z     vdW  Elec       q    Type
REMARK                         _______ _______ _______ _____ _____    ______ ____
ROOT
ATOM      1  C5  UNL     1      20.577   6.703  33.310  0.00  0.00    +0.285 C 
ATOM      2  O1  UNL     1      20.532   7.505  32.339  0.00  0.00    -0.267 OA
ATOM      3  N1  UNL     1      20.812   5.302  33.065  0.00  0.00    -0.290 N 
ATOM      4  C6  UNL     1      21.652   4.481  33.925  0.00  0.00    +0.110 C 
ATOM      5  C7  UNL     1      22.186   3.367  33.036  0.00  0.00    +0.043 C 
ATOM      6  C8  UNL     1      21.195   3.274  31.877  0.00  0.00    +0.095 C 
ATOM      7  C16 UNL     1      20.603   4.689  31.758  0.00  0.00    +0.094 C 
ATOM      8  C17 UNL     1      19.113   4.651  31.403  0.00  0.00    +0.030 C 
ENDROOT
BRANCH   1  12
ATOM      9  C1  UNL     1      18.726   8.259  37.718  0.00  0.00    +0.069 C 
ATOM     10  C2  UNL     1      19.610   7.947  36.559  0.00  0.00    +0.081 A 
ATOM     11  C3  UNL     1      19.215   7.359  35.376  0.00  0.00    +0.080 A 
ATOM     12  C4  UNL     1      20.396   7.239  34.669  0.00  0.00    +0.222 A 
ATOM     13  O3  UNL     1      21.376   7.719  35.401  0.00  0.00    -0.350 OA
ATOM     14  N3  UNL     1      20.942   8.146  36.551  0.00  0.00    -0.083 NA
ENDBRANCH   1  12
BRANCH   6  15
ATOM     15  N2  UNL     1      21.852   2.837  30.640  0.00  0.00    -0.310 N 
ATOM     16  C9  UNL     1      21.862   1.459  30.230  0.00  0.00    +0.220 C 
ATOM     17  O2  UNL     1      21.267   0.600  30.940  0.00  0.00    -0.275 OA
ATOM     18  H10 UNL     1      22.299   3.547  30.016  0.00  0.00    +0.149 HD
BRANCH  16  19
ATOM     19  C10 UNL     1      22.566   1.048  28.939  0.00  0.00    +0.051 C 
ATOM     20  C11 UNL     1      22.190   2.042  27.822  0.00  0.00    +0.021 C 
ATOM     21  C12 UNL     1      22.218  -0.406  28.502  0.00  0.00    +0.043 C 
ATOM     22  C13 UNL     1      23.409  -1.203  28.892  0.00  0.00    -0.030 C 
ATOM     23  C14 UNL     1      24.427  -0.439  29.241  0.00  0.00    -0.030 C 
ATOM     24  C15 UNL     1      24.101   1.010  29.165  0.00  0.00    +0.043 C 
ENDBRANCH  16  19
ENDBRANCH   6  15
TORSDOF 3
ENDMDL
MODEL 6
REMARK VINA RESULT:    -5.707     15.361     18.239
REMARK INTER + INTRA:          -7.286
REMARK INTER:                  -6.725
REMARK INTRA:                  -0.561
REMARK UNBOUND:                -0.579
REMARK  Name = /home/qwerty/github/datacon2025hack/step_04_hit_selection/docking/ligands/lig_154.pdb
REMARK  6 active torsions:
REMARK  status: ('A' for Active; 'I' for Inactive)
REMARK    1  A    between atoms: C1_1  and  C2_2
REMARK    2  A    between atoms: C4_4  and  C5_5
REMARK    3  A    between atoms: C8_10  and  N2_11
REMARK    4  A    between atoms: C9_12  and  C10_14
REMARK    5  A    between atoms: C10_14  and  C11_15
REMARK    6  A    between atoms: C16_20  and  C17_21
REMARK                            x       y       z     vdW  Elec       q    Type
REMARK                         _______ _______ _______ _____ _____    ______ ____
ROOT
ATOM      1  C5  UNL     1      12.372  13.911  34.831  0.00  0.00    +0.285 C 
ATOM      2  O1  UNL     1      11.350  13.635  35.515  0.00  0.00    -0.267 OA
ATOM      3  N1  UNL     1      12.339  13.737  33.401  0.00  0.00    -0.290 N 
ATOM      4  C6  UNL     1      12.967  14.671  32.478  0.00  0.00    +0.110 C 
ATOM      5  C7  UNL     1      12.182  14.558  31.179  0.00  0.00    +0.043 C 
ATOM      6  C8  UNL     1      11.520  13.182  31.235  0.00  0.00    +0.095 C 
ATOM      7  C16 UNL     1      11.353  12.892  32.736  0.00  0.00    +0.094 C 
ATOM      8  C17 UNL     1      11.594  11.414  33.058  0.00  0.00    +0.030 C 
ENDROOT
BRANCH   1  12
ATOM      9  C1  UNL     1      15.757  16.713  37.276  0.00  0.00    +0.069 C 
ATOM     10  C2  UNL     1      15.049  15.618  36.552  0.00  0.00    +0.081 A 
ATOM     11  C3  UNL     1      13.767  15.680  36.047  0.00  0.00    +0.080 A 
ATOM     12  C4  UNL     1      13.565  14.415  35.530  0.00  0.00    +0.222 A 
ATOM     13  O3  UNL     1      14.649  13.700  35.731  0.00  0.00    -0.350 OA
ATOM     14  N3  UNL     1      15.561  14.389  36.354  0.00  0.00    -0.083 NA
ENDBRANCH   1  12
BRANCH   6  15
ATOM     15  N2  UNL     1      10.239  13.172  30.518  0.00  0.00    -0.310 N 
ATOM     16  C9  UNL     1       9.836  12.061  29.697  0.00  0.00    +0.220 C 
ATOM     17  O2  UNL     1      10.592  11.054  29.609  0.00  0.00    -0.275 OA
ATOM     18  H10 UNL     1       9.581  13.975  30.630  0.00  0.00    +0.149 HD
BRANCH  16  19
ATOM     19  C10 UNL     1       8.498  12.098  28.962  0.00  0.00    +0.051 C 
ATOM     20  C11 UNL     1       7.779  13.422  29.289  0.00  0.00    +0.021 C 
ATOM     21  C12 UNL     1       7.583  10.889  29.322  0.00  0.00    +0.043 C 
ATOM     22  C13 UNL     1       7.704   9.977  28.156  0.00  0.00    -0.030 C 
ATOM     23  C14 UNL     1       8.315  10.550  27.136  0.00  0.00    -0.030 C 
ATOM     24  C15 UNL     1       8.731  11.945  27.436  0.00  0.00    +0.043 C 
ENDBRANCH  16  19
ENDBRANCH   6  15
TORSDOF 3
ENDMDL
MODEL 7
REMARK VINA RESULT:    -5.676     12.982     15.942
REMARK INTER + INTRA:          -7.250
REMARK INTER:                  -6.699
REMARK INTRA:                  -0.552
REMARK UNBOUND:                -0.579
REMARK  Name = /home/qwerty/github/datacon2025hack/step_04_hit_selection/docking/ligands/lig_154.pdb
REMARK  6 active torsions:
REMARK  status: ('A' for Active; 'I' for Inactive)
REMARK    1  A    between atoms: C1_1  and  C2_2
REMARK    2  A    between atoms: C4_4  and  C5_5
REMARK    3  A    between atoms: C8_10  and  N2_11
REMARK    4  A    between atoms: C9_12  and  C10_14
REMARK    5  A    between atoms: C10_14  and  C11_15
REMARK    6  A    between atoms: C16_20  and  C17_21
REMARK                            x       y       z     vdW  Elec       q    Type
REMARK                         _______ _______ _______ _____ _____    ______ ____
ROOT
ATOM      1  C5  UNL     1       9.285  12.256  28.024  0.00  0.00    +0.285 C 
ATOM      2  O1  UNL     1       8.182  12.824  27.797  0.00  0.00    -0.267 OA
ATOM      3  N1  UNL     1       9.768  11.251  27.112  0.00  0.00    -0.290 N 
ATOM      4  C6  UNL     1      11.171  11.130  26.743  0.00  0.00    +0.110 C 
ATOM      5  C7  UNL     1      11.180  10.497  25.358  0.00  0.00    +0.043 C 
ATOM      6  C8  UNL     1       9.838   9.775  25.244  0.00  0.00    +0.095 C 
ATOM      7  C16 UNL     1       8.893  10.562  26.168  0.00  0.00    +0.094 C 
ATOM      8  C17 UNL     1       7.919   9.636  26.903  0.00  0.00    +0.030 C 
ENDROOT
BRANCH   1  12
ATOM      9  C1  UNL     1      12.133  14.660  31.398  0.00  0.00    +0.069 C 
ATOM     10  C2  UNL     1      11.298  13.661  30.672  0.00  0.00    +0.081 A 
ATOM     11  C3  UNL     1      10.769  13.816  29.408  0.00  0.00    +0.080 A 
ATOM     12  C4  UNL     1      10.044  12.655  29.220  0.00  0.00    +0.222 A 
ATOM     13  O3  UNL     1      10.155  11.911  30.297  0.00  0.00    -0.350 OA
ATOM     14  N3  UNL     1      10.896  12.489  31.198  0.00  0.00    -0.083 NA
ENDBRANCH   1  12
BRANCH   6  15
ATOM     15  N2  UNL     1       9.361   9.743  23.855  0.00  0.00    -0.310 N 
ATOM     16  C9  UNL     1       9.755   8.705  22.941  0.00  0.00    +0.220 C 
ATOM     17  O2  UNL     1      10.512   7.779  23.348  0.00  0.00    -0.275 OA
ATOM     18  H10 UNL     1       8.690  10.472  23.525  0.00  0.00    +0.149 HD
BRANCH  16  19
ATOM     19  C10 UNL     1       9.242   8.716  21.503  0.00  0.00    +0.051 C 
ATOM     20  C11 UNL     1       7.921   7.923  21.433  0.00  0.00    +0.021 C 
ATOM     21  C12 UNL     1      10.273   8.128  20.494  0.00  0.00    +0.043 C 
ATOM     22  C13 UNL     1      10.861   9.321  19.833  0.00  0.00    -0.030 C 
ATOM     23  C14 UNL     1      10.194  10.426  20.111  0.00  0.00    -0.030 C 
ATOM     24  C15 UNL     1       9.046  10.179  21.025  0.00  0.00    +0.043 C 
ENDBRANCH  16  19
ENDBRANCH   6  15
TORSDOF 3
ENDMDL
MODEL 8
REMARK VINA RESULT:    -5.667      1.864      1.947
REMARK INTER + INTRA:          -7.239
REMARK INTER:                  -6.673
REMARK INTRA:                  -0.566
REMARK UNBOUND:                -0.579
REMARK  Name = /home/qwerty/github/datacon2025hack/step_04_hit_selection/docking/ligands/lig_154.pdb
REMARK  6 active torsions:
REMARK  status: ('A' for Active; 'I' for Inactive)
REMARK    1  A    between atoms: C1_1  and  C2_2
REMARK    2  A    between atoms: C4_4  and  C5_5
REMARK    3  A    between atoms: C8_10  and  N2_11
REMARK    4  A    between atoms: C9_12  and  C10_14
REMARK    5  A    between atoms: C10_14  and  C11_15
REMARK    6  A    between atoms: C16_20  and  C17_21
REMARK                            x       y       z     vdW  Elec       q    Type
REMARK                         _______ _______ _______ _____ _____    ______ ____
ROOT
ATOM      1  C5  UNL     1      16.062   1.272  24.736  0.00  0.00    +0.285 C 
ATOM      2  O1  UNL     1      15.300   1.318  25.739  0.00  0.00    -0.267 OA
ATOM      3  N1  UNL     1      17.489   1.220  24.929  0.00  0.00    -0.290 N 
ATOM      4  C6  UNL     1      18.367   0.401  24.106  0.00  0.00    +0.110 C 
ATOM      5  C7  UNL     1      19.571   0.081  24.981  0.00  0.00    +0.043 C 
ATOM      6  C8  UNL     1      19.595   1.181  26.041  0.00  0.00    +0.095 C 
ATOM      7  C16 UNL     1      18.127   1.619  26.180  0.00  0.00    +0.094 C 
ATOM      8  C17 UNL     1      18.004   3.130  26.399  0.00  0.00    +0.030 C 
ENDROOT
BRANCH   1  12
ATOM      9  C1  UNL     1      14.723   2.281  19.996  0.00  0.00    +0.069 C 
ATOM     10  C2  UNL     1      14.839   1.705  21.366  0.00  0.00    +0.081 A 
ATOM     11  C3  UNL     1      15.684   2.149  22.361  0.00  0.00    +0.080 A 
ATOM     12  C4  UNL     1      15.454   1.264  23.396  0.00  0.00    +0.222 A 
ATOM     13  O3  UNL     1      14.553   0.389  23.009  0.00  0.00    -0.350 OA
ATOM     14  N3  UNL     1      14.166   0.617  21.787  0.00  0.00    -0.083 NA
ENDBRANCH   1  12
BRANCH   6  15
ATOM     15  N2  UNL     1      20.155   0.696  27.308  0.00  0.00    -0.310 N 
ATOM     16  C9  UNL     1      21.448   1.117  27.778  0.00  0.00    +0.220 C 
ATOM     17  O2  UNL     1      22.111   1.947  27.096  0.00  0.00    -0.275 OA
ATOM     18  H10 UNL     1      19.591   0.053  27.907  0.00  0.00    +0.149 HD
BRANCH  16  19
ATOM     19  C10 UNL     1      21.995   0.579  29.098  0.00  0.00    +0.051 C 
ATOM     20  C11 UNL     1      20.872   0.598  30.154  0.00  0.00    +0.021 C 
ATOM     21  C12 UNL     1      23.226   1.386  29.610  0.00  0.00    +0.043 C 
ATOM     22  C13 UNL     1      24.391   0.528  29.278  0.00  0.00    -0.030 C 
ATOM     23  C14 UNL     1      24.028  -0.684  28.900  0.00  0.00    -0.030 C 
ATOM     24  C15 UNL     1      22.551  -0.855  28.892  0.00  0.00    +0.043 C 
ENDBRANCH  16  19
ENDBRANCH   6  15
TORSDOF 3
ENDMDL
MODEL 9
REMARK VINA RESULT:    -5.648     11.573     14.689
REMARK INTER + INTRA:          -7.217
REMARK INTER:                  -6.677
REMARK INTRA:                  -0.540
REMARK UNBOUND:                -0.579
REMARK  Name = /home/qwerty/github/datacon2025hack/step_04_hit_selection/docking/ligands/lig_154.pdb
REMARK  6 active torsions:
REMARK  status: ('A' for Active; 'I' for Inactive)
REMARK    1  A    between atoms: C1_1  and  C2_2
REMARK    2  A    between atoms: C4_4  and  C5_5
REMARK    3  A    between atoms: C8_10  and  N2_11
REMARK    4  A    between atoms: C9_12  and  C10_14
REMARK    5  A    between atoms: C10_14  and  C11_15
REMARK    6  A    between atoms: C16_20  and  C17_21
REMARK                            x       y       z     vdW  Elec       q    Type
REMARK                         _______ _______ _______ _____ _____    ______ ____
ROOT
ATOM      1  C5  UNL     1      16.959  11.775  34.667  0.00  0.00    +0.285 C 
ATOM      2  O1  UNL     1      16.365  11.225  33.700  0.00  0.00    -0.267 OA
ATOM      3  N1  UNL     1      18.333  11.439  34.940  0.00  0.00    -0.290 N 
ATOM      4  C6  UNL     1      19.319  12.426  35.358  0.00  0.00    +0.110 C 
ATOM      5  C7  UNL     1      20.665  11.886  34.894  0.00  0.00    +0.043 C 
ATOM      6  C8  UNL     1      20.457  10.380  34.745  0.00  0.00    +0.095 C 
ATOM      7  C16 UNL     1      18.960  10.222  34.433  0.00  0.00    +0.094 C 
ATOM      8  C17 UNL     1      18.368   8.981  35.108  0.00  0.00    +0.030 C 
ENDROOT
BRANCH   1  12
ATOM      9  C1  UNL     1      14.982  15.960  36.632  0.00  0.00    +0.069 C 
ATOM     10  C2  UNL     1      15.386  14.551  36.358  0.00  0.00    +0.081 A 
ATOM     11  C3  UNL     1      16.199  14.128  35.327  0.00  0.00    +0.080 A 
ATOM     12  C4  UNL     1      16.218  12.755  35.477  0.00  0.00    +0.222 A 
ATOM     13  O3  UNL     1      15.471  12.434  36.509  0.00  0.00    -0.350 OA
ATOM     14  N3  UNL     1      14.945  13.489  37.059  0.00  0.00    -0.083 NA
ENDBRANCH   1  12
BRANCH   6  15
ATOM     15  N2  UNL     1      21.310   9.822  33.687  0.00  0.00    -0.310 N 
ATOM     16  C9  UNL     1      22.283   8.798  33.957  0.00  0.00    +0.220 C 
ATOM     17  O2  UNL     1      22.393   8.346  35.131  0.00  0.00    -0.275 OA
ATOM     18  H10 UNL     1      21.188  10.149  32.703  0.00  0.00    +0.149 HD
BRANCH  16  19
ATOM     19  C10 UNL     1      23.155   8.253  32.828  0.00  0.00    +0.051 C 
ATOM     20  C11 UNL     1      22.724   6.806  32.512  0.00  0.00    +0.021 C 
ATOM     21  C12 UNL     1      24.674   8.298  33.168  0.00  0.00    +0.043 C 
ATOM     22  C13 UNL     1      25.186   9.468  32.412  0.00  0.00    -0.030 C 
ATOM     23  C14 UNL     1      24.301   9.930  31.547  0.00  0.00    -0.030 C 
ATOM     24  C15 UNL     1      23.027   9.163  31.578  0.00  0.00    +0.043 C 
ENDBRANCH  16  19
ENDBRANCH   6  15
TORSDOF 3
ENDMDL
