REMARK  Name = /home/qwerty/github/datacon2025hack/step_04_hit_selection/docking/ligands/lig_594.pdb
REMARK  4 active torsions:
REMARK  status: ('A' for Active; 'I' for Inactive)
REMARK    1  A    between atoms: C1_2  and  C10_15
REMARK    2  A    between atoms: N1_3  and  C2_4
REMARK    3  A    between atoms: C6_9  and  C7_10
REMARK    4  A    between atoms: C7_10  and  O2_11
REMARK                            x       y       z     vdW  Elec       q    Type
REMARK                         _______ _______ _______ _____ _____    ______ ____
ROOT
ATOM      1  O1  UNL     1       0.612  -1.712   1.244  0.00  0.00    -0.270 OA
ATOM      2  C1  UNL     1       1.316  -0.749   0.838  0.00  0.00    +0.250 C 
ATOM      3  N1  UNL     1       0.724   0.319   0.078  0.00  0.00    -0.281 N 
ATOM      4  H1  UNL     1       1.333   1.107  -0.235  0.00  0.00    +0.155 HD
ENDROOT
BRANCH   3   5
ATOM      5  C2  UNL     1      -0.649   0.345  -0.344  0.00  0.00    +0.036 A 
ATOM      6  C3  UNL     1      -0.966   0.871  -1.623  0.00  0.00    +0.025 A 
ATOM      7  C4  UNL     1      -2.301   0.939  -2.065  0.00  0.00    +0.032 A 
ATOM      8  C5  UNL     1      -3.293   0.487  -1.201  0.00  0.00    +0.089 A 
ATOM      9  N2  UNL     1      -4.622   0.480  -1.405  0.00  0.00    -0.230 NA
ATOM     10  C6  UNL     1      -5.099  -0.041  -0.244  0.00  0.00    +0.134 A 
ATOM     11  N3  UNL     1      -4.133  -0.333   0.662  0.00  0.00    -0.340 N 
ATOM     12  C8  UNL     1      -2.998   0.000   0.037  0.00  0.00    +0.068 A 
ATOM     13  C9  UNL     1      -1.692  -0.082   0.513  0.00  0.00    +0.051 A 
ATOM     14  H7  UNL     1      -4.248  -0.719   1.626  0.00  0.00    +0.167 HD
BRANCH  10  15
ATOM     15  C7  UNL     1      -6.560  -0.200   0.037  0.00  0.00    +0.229 C 
BRANCH  15  16
ATOM     16  O2  UNL     1      -7.035   0.906   0.753  0.00  0.00    -0.387 OA
ATOM     17  H6  UNL     1      -7.119   1.651   0.101  0.00  0.00    +0.210 HD
ENDBRANCH  15  16
ENDBRANCH  10  15
ENDBRANCH   3   5
BRANCH   2  18
ATOM     18  C10 UNL     1       2.750  -0.730   1.172  0.00  0.00    +0.064 A 
ATOM     19  C11 UNL     1       3.316  -1.207   2.354  0.00  0.00    +0.098 A 
ATOM     20  N4  UNL     1       4.658  -1.043   2.340  0.00  0.00    -0.345 N 
ATOM     21  C12 UNL     1       4.942  -0.482   1.154  0.00  0.00    +0.139 A 
ATOM     22  N5  UNL     1       6.182  -0.183   0.693  0.00  0.00    -0.237 NA
ATOM     23  C13 UNL     1       6.315   0.337  -0.564  0.00  0.00    +0.113 A 
ATOM     24  C14 UNL     1       5.181   0.539  -1.381  0.00  0.00    +0.020 A 
ATOM     25  C15 UNL     1       3.903   0.216  -0.895  0.00  0.00    +0.014 A 
ATOM     26  C16 UNL     1       3.813  -0.280   0.406  0.00  0.00    +0.031 A 
ATOM     27  H10 UNL     1       5.333  -1.314   3.089  0.00  0.00    +0.167 HD
ENDBRANCH   2  18
TORSDOF 4
