MODEL 1
REMARK VINA RESULT:    -6.662      0.000      0.000
REMARK INTER + INTRA:          -8.703
REMARK INTER:                  -8.220
REMARK INTRA:                  -0.483
REMARK UNBOUND:                -0.483
REMARK  Name = /home/qwerty/github/datacon2025hack/step_04_hit_selection/docking/ligands/lig_502.pdb
REMARK  7 active torsions:
REMARK  status: ('A' for Active; 'I' for Inactive)
REMARK    1  A    between atoms: C1_1  and  C2_2
REMARK    2  A    between atoms: C2_2  and  C3_3
REMARK    3  A    between atoms: C2_2  and  N1_4
REMARK    4  A    between atoms: C4_5  and  C5_7
REMARK    5  A    between atoms: N5_14  and  C9_15
REMARK    6  A    between atoms: C12_18  and  C13_19
REMARK    7  A    between atoms: N6_27  and  C18_28
REMARK                            x       y       z     vdW  Elec       q    Type
REMARK                         _______ _______ _______ _____ _____    ______ ____
ROOT
ATOM      1  C5  UNL     1      19.276  14.810  26.500  0.00  0.00    +0.220 A 
ATOM      2  N2  UNL     1      18.729  16.034  26.365  0.00  0.00    -0.123 NA
ATOM      3  N3  UNL     1      17.532  15.996  26.929  0.00  0.00    -0.113 NA
ATOM      4  C6  UNL     1      17.361  14.746  27.397  0.00  0.00    +0.220 A 
ATOM      5  N4  UNL     1      16.153  14.311  28.045  0.00  0.00    -0.297 N 
ATOM      6  C7  UNL     1      15.537  13.024  27.702  0.00  0.00    +0.127 C 
ATOM      7  C8  UNL     1      14.031  13.201  27.493  0.00  0.00    +0.124 C 
ATOM      8  N5  UNL     1      13.408  13.908  28.626  0.00  0.00    -0.327 N 
ATOM      9  C16 UNL     1      14.252  14.592  29.618  0.00  0.00    +0.124 C 
ATOM     10  C17 UNL     1      15.464  15.246  28.945  0.00  0.00    +0.127 C 
ATOM     11  N6  UNL     1      18.445  13.974  27.166  0.00  0.00    -0.295 N 
ATOM     12  C18 UNL     1      18.697  12.601  27.609  0.00  0.00    +0.154 C 
ENDROOT
BRANCH   8  13
ATOM     13  C9  UNL     1      11.979  13.816  28.823  0.00  0.00    +0.030 A 
ATOM     14  C10 UNL     1      11.442  13.620  30.108  0.00  0.00    +0.023 A 
ATOM     15  C11 UNL     1      10.060  13.526  30.297  0.00  0.00    +0.014 A 
ATOM     16  C12 UNL     1       9.185  13.605  29.200  0.00  0.00    +0.055 A 
ATOM     17  C14 UNL     1       9.717  13.823  27.919  0.00  0.00    +0.014 A 
ATOM     18  C15 UNL     1      11.099  13.917  27.732  0.00  0.00    +0.023 A 
BRANCH  16  19
ATOM     19  C13 UNL     1       7.691  13.550  29.400  0.00  0.00    +0.417 C 
ATOM     20  F1  UNL     1       7.324  12.261  29.734  0.00  0.00    -0.166 F 
ATOM     21  F2  UNL     1       7.311  14.406  30.420  0.00  0.00    -0.166 F 
ATOM     22  F3  UNL     1       7.022  13.925  28.248  0.00  0.00    -0.166 F 
ENDBRANCH  16  19
ENDBRANCH   8  13
BRANCH   1  24
ATOM     23  N1  UNL     1      21.763  14.482  26.798  0.00  0.00    -0.306 N 
ATOM     24  C4  UNL     1      20.603  14.458  25.950  0.00  0.00    +0.282 C 
ATOM     25  O1  UNL     1      20.723  14.167  24.729  0.00  0.00    -0.267 OA
ATOM     26  H8  UNL     1      21.647  14.754  27.801  0.00  0.00    +0.149 HD
BRANCH  23  28
ATOM     27  C1  UNL     1      23.697  15.367  25.559  0.00  0.00    +0.027 C 
ATOM     28  C2  UNL     1      23.105  14.163  26.297  0.00  0.00    +0.067 C 
ATOM     29  C3  UNL     1      24.015  13.748  27.457  0.00  0.00    +0.027 C 
ENDBRANCH  23  28
ENDBRANCH   1  24
TORSDOF 4
ENDMDL
MODEL 2
REMARK VINA RESULT:    -6.558     11.401     13.724
REMARK INTER + INTRA:          -8.574
REMARK INTER:                  -8.014
REMARK INTRA:                  -0.560
REMARK UNBOUND:                -0.483
REMARK  Name = /home/qwerty/github/datacon2025hack/step_04_hit_selection/docking/ligands/lig_502.pdb
REMARK  7 active torsions:
REMARK  status: ('A' for Active; 'I' for Inactive)
REMARK    1  A    between atoms: C1_1  and  C2_2
REMARK    2  A    between atoms: C2_2  and  C3_3
REMARK    3  A    between atoms: C2_2  and  N1_4
REMARK    4  A    between atoms: C4_5  and  C5_7
REMARK    5  A    between atoms: N5_14  and  C9_15
REMARK    6  A    between atoms: C12_18  and  C13_19
REMARK    7  A    between atoms: N6_27  and  C18_28
REMARK                            x       y       z     vdW  Elec       q    Type
REMARK                         _______ _______ _______ _____ _____    ______ ____
ROOT
ATOM      1  C5  UNL     1      20.016   7.770  20.201  0.00  0.00    +0.220 A 
ATOM      2  N2  UNL     1      21.130   7.114  19.819  0.00  0.00    -0.123 NA
ATOM      3  N3  UNL     1      21.295   6.098  20.652  0.00  0.00    -0.113 NA
ATOM      4  C6  UNL     1      20.281   6.150  21.536  0.00  0.00    +0.220 A 
ATOM      5  N4  UNL     1      20.144   5.222  22.626  0.00  0.00    -0.297 N 
ATOM      6  C7  UNL     1      19.814   5.691  23.976  0.00  0.00    +0.127 C 
ATOM      7  C8  UNL     1      20.737   5.031  25.004  0.00  0.00    +0.124 C 
ATOM      8  N5  UNL     1      20.764   3.567  24.842  0.00  0.00    -0.327 N 
ATOM      9  C16 UNL     1      20.203   2.951  23.630  0.00  0.00    +0.124 C 
ATOM     10  C17 UNL     1      20.493   3.813  22.396  0.00  0.00    +0.127 C 
ATOM     11  N6  UNL     1      19.442   7.176  21.273  0.00  0.00    -0.295 N 
ATOM     12  C18 UNL     1      18.175   7.506  21.928  0.00  0.00    +0.154 C 
ENDROOT
BRANCH   8  13
ATOM     13  C9  UNL     1      21.227   2.739  25.933  0.00  0.00    +0.030 A 
ATOM     14  C10 UNL     1      22.332   3.127  26.712  0.00  0.00    +0.023 A 
ATOM     15  C11 UNL     1      22.782   2.323  27.763  0.00  0.00    +0.014 A 
ATOM     16  C12 UNL     1      22.150   1.100  28.044  0.00  0.00    +0.055 A 
ATOM     17  C14 UNL     1      21.033   0.720  27.282  0.00  0.00    +0.014 A 
ATOM     18  C15 UNL     1      20.583   1.526  26.232  0.00  0.00    +0.023 A 
BRANCH  16  19
ATOM     19  C13 UNL     1      22.600   0.248  29.204  0.00  0.00    +0.417 C 
ATOM     20  F1  UNL     1      23.799   0.735  29.688  0.00  0.00    -0.166 F 
ATOM     21  F2  UNL     1      21.658   0.279  30.218  0.00  0.00    -0.166 F 
ATOM     22  F3  UNL     1      22.772  -1.069  28.815  0.00  0.00    -0.166 F 
ENDBRANCH  16  19
ENDBRANCH   8  13
BRANCH   1  24
ATOM     23  N1  UNL     1      20.182  10.254  19.774  0.00  0.00    -0.306 N 
ATOM     24  C4  UNL     1      19.535   8.995  19.527  0.00  0.00    +0.282 C 
ATOM     25  O1  UNL     1      18.538   8.942  18.758  0.00  0.00    -0.267 OA
ATOM     26  H8  UNL     1      20.990  10.282  20.438  0.00  0.00    +0.149 HD
BRANCH  23  28
ATOM     27  C1  UNL     1      18.795  12.263  20.091  0.00  0.00    +0.027 C 
ATOM     28  C2  UNL     1      19.731  11.502  19.148  0.00  0.00    +0.067 C 
ATOM     29  C3  UNL     1      20.937  12.371  18.777  0.00  0.00    +0.027 C 
ENDBRANCH  23  28
ENDBRANCH   1  24
TORSDOF 4
ENDMDL
MODEL 3
REMARK VINA RESULT:    -6.535      9.891     13.389
REMARK INTER + INTRA:          -8.546
REMARK INTER:                  -8.105
REMARK INTRA:                  -0.441
REMARK UNBOUND:                -0.483
REMARK  Name = /home/qwerty/github/datacon2025hack/step_04_hit_selection/docking/ligands/lig_502.pdb
REMARK  7 active torsions:
REMARK  status: ('A' for Active; 'I' for Inactive)
REMARK    1  A    between atoms: C1_1  and  C2_2
REMARK    2  A    between atoms: C2_2  and  C3_3
REMARK    3  A    between atoms: C2_2  and  N1_4
REMARK    4  A    between atoms: C4_5  and  C5_7
REMARK    5  A    between atoms: N5_14  and  C9_15
REMARK    6  A    between atoms: C12_18  and  C13_19
REMARK    7  A    between atoms: N6_27  and  C18_28
REMARK                            x       y       z     vdW  Elec       q    Type
REMARK                         _______ _______ _______ _____ _____    ______ ____
ROOT
ATOM      1  C5  UNL     1       7.821   2.283  31.154  0.00  0.00    +0.220 A 
ATOM      2  N2  UNL     1       6.541   2.703  31.200  0.00  0.00    -0.123 NA
ATOM      3  N3  UNL     1       6.489   3.875  30.586  0.00  0.00    -0.113 NA
ATOM      4  C6  UNL     1       7.740   4.158  30.178  0.00  0.00    +0.220 A 
ATOM      5  N4  UNL     1       8.086   5.378  29.501  0.00  0.00    -0.297 N 
ATOM      6  C7  UNL     1       9.281   6.139  29.885  0.00  0.00    +0.127 C 
ATOM      7  C8  UNL     1       8.939   7.625  30.018  0.00  0.00    +0.124 C 
ATOM      8  N5  UNL     1       8.239   8.126  28.822  0.00  0.00    -0.327 N 
ATOM      9  C16 UNL     1       7.703   7.179  27.833  0.00  0.00    +0.124 C 
ATOM     10  C17 UNL     1       7.139   5.932  28.524  0.00  0.00    +0.127 C 
ATOM     11  N6  UNL     1       8.605   3.170  30.498  0.00  0.00    -0.295 N 
ATOM     12  C18 UNL     1      10.019   3.046  30.140  0.00  0.00    +0.154 C 
ENDROOT
BRANCH   8  13
ATOM     13  C9  UNL     1       8.195   9.548  28.567  0.00  0.00    +0.030 A 
ATOM     14  C10 UNL     1       8.523  10.062  27.299  0.00  0.00    +0.023 A 
ATOM     15  C11 UNL     1       8.485  11.438  27.056  0.00  0.00    +0.014 A 
ATOM     16  C12 UNL     1       8.140  12.333  28.082  0.00  0.00    +0.055 A 
ATOM     17  C14 UNL     1       7.791  11.822  29.342  0.00  0.00    +0.014 A 
ATOM     18  C15 UNL     1       7.828  10.446  29.585  0.00  0.00    +0.023 A 
BRANCH  16  19
ATOM     19  C13 UNL     1       8.053  13.815  27.815  0.00  0.00    +0.417 C 
ATOM     20  F1  UNL     1       7.607  14.456  28.955  0.00  0.00    -0.166 F 
ATOM     21  F2  UNL     1       9.296  14.316  27.472  0.00  0.00    -0.166 F 
ATOM     22  F3  UNL     1       7.177  14.082  26.777  0.00  0.00    -0.166 F 
ENDBRANCH  16  19
ENDBRANCH   8  13
BRANCH   1  24
ATOM     23  N1  UNL     1       8.587  -0.117  30.961  0.00  0.00    -0.306 N 
ATOM     24  C4  UNL     1       8.274   1.022  31.780  0.00  0.00    +0.282 C 
ATOM     25  O1  UNL     1       8.356   0.934  33.035  0.00  0.00    -0.267 OA
ATOM     26  H8  UNL     1       8.485  -0.033  29.924  0.00  0.00    +0.149 HD
BRANCH  23  28
ATOM     27  C1  UNL     1       7.820  -2.158  32.103  0.00  0.00    +0.027 C 
ATOM     28  C2  UNL     1       9.020  -1.397  31.533  0.00  0.00    +0.067 C 
ATOM     29  C3  UNL     1       9.728  -2.238  30.467  0.00  0.00    +0.027 C 
ENDBRANCH  23  28
ENDBRANCH   1  24
TORSDOF 4
ENDMDL
MODEL 4
REMARK VINA RESULT:    -6.243     14.466     17.634
REMARK INTER + INTRA:          -8.185
REMARK INTER:                  -7.609
REMARK INTRA:                  -0.577
REMARK UNBOUND:                -0.483
REMARK  Name = /home/qwerty/github/datacon2025hack/step_04_hit_selection/docking/ligands/lig_502.pdb
REMARK  7 active torsions:
REMARK  status: ('A' for Active; 'I' for Inactive)
REMARK    1  A    between atoms: C1_1  and  C2_2
REMARK    2  A    between atoms: C2_2  and  C3_3
REMARK    3  A    between atoms: C2_2  and  N1_4
REMARK    4  A    between atoms: C4_5  and  C5_7
REMARK    5  A    between atoms: N5_14  and  C9_15
REMARK    6  A    between atoms: C12_18  and  C13_19
REMARK    7  A    between atoms: N6_27  and  C18_28
REMARK                            x       y       z     vdW  Elec       q    Type
REMARK                         _______ _______ _______ _____ _____    ______ ____
ROOT
ATOM      1  C5  UNL     1      14.019   1.511  36.969  0.00  0.00    +0.220 A 
ATOM      2  N2  UNL     1      14.760   0.454  37.358  0.00  0.00    -0.123 NA
ATOM      3  N3  UNL     1      15.908   0.514  36.702  0.00  0.00    -0.113 NA
ATOM      4  C6  UNL     1      15.851   1.605  35.915  0.00  0.00    +0.220 A 
ATOM      5  N4  UNL     1      16.911   1.979  35.018  0.00  0.00    -0.297 N 
ATOM      6  C7  UNL     1      16.619   2.395  33.641  0.00  0.00    +0.127 C 
ATOM      7  C8  UNL     1      17.560   1.684  32.666  0.00  0.00    +0.124 C 
ATOM      8  N5  UNL     1      18.968   1.826  33.074  0.00  0.00    -0.327 N 
ATOM      9  C16 UNL     1      19.297   2.323  34.419  0.00  0.00    +0.124 C 
ATOM     10  C17 UNL     1      18.300   1.790  35.455  0.00  0.00    +0.127 C 
ATOM     11  N6  UNL     1      14.686   2.272  36.070  0.00  0.00    -0.295 N 
ATOM     12  C18 UNL     1      14.284   3.551  35.482  0.00  0.00    +0.154 C 
ENDROOT
BRANCH   8  13
ATOM     13  C9  UNL     1      20.017   1.596  32.106  0.00  0.00    +0.030 A 
ATOM     14  C10 UNL     1      19.949   0.510  31.216  0.00  0.00    +0.023 A 
ATOM     15  C11 UNL     1      20.966   0.286  30.284  0.00  0.00    +0.014 A 
ATOM     16  C12 UNL     1      22.087   1.132  30.237  0.00  0.00    +0.055 A 
ATOM     17  C14 UNL     1      22.147   2.231  31.110  0.00  0.00    +0.014 A 
ATOM     18  C15 UNL     1      21.129   2.454  32.041  0.00  0.00    +0.023 A 
BRANCH  16  19
ATOM     19  C13 UNL     1      23.167   0.925  29.205  0.00  0.00    +0.417 C 
ATOM     20  F1  UNL     1      24.403   1.018  29.816  0.00  0.00    -0.166 F 
ATOM     21  F2  UNL     1      23.043  -0.324  28.623  0.00  0.00    -0.166 F 
ATOM     22  F3  UNL     1      23.087   1.878  28.205  0.00  0.00    -0.166 F 
ENDBRANCH  16  19
ENDBRANCH   8  13
BRANCH   1  24
ATOM     23  N1  UNL     1      11.522   1.177  36.776  0.00  0.00    -0.306 N 
ATOM     24  C4  UNL     1      12.646   1.754  37.461  0.00  0.00    +0.282 C 
ATOM     25  O1  UNL     1      12.457   2.492  38.465  0.00  0.00    -0.267 OA
ATOM     26  H8  UNL     1      11.698   0.591  35.927  0.00  0.00    +0.149 HD
BRANCH  23  28
ATOM     27  C1  UNL     1       9.505   2.536  36.397  0.00  0.00    +0.027 C 
ATOM     28  C2  UNL     1      10.139   1.404  37.211  0.00  0.00    +0.067 C 
ATOM     29  C3  UNL     1       9.322   0.117  37.062  0.00  0.00    +0.027 C 
ENDBRANCH  23  28
ENDBRANCH   1  24
TORSDOF 4
ENDMDL
MODEL 5
REMARK VINA RESULT:    -6.196      8.316      9.803
REMARK INTER + INTRA:          -8.127
REMARK INTER:                  -7.557
REMARK INTRA:                  -0.570
REMARK UNBOUND:                -0.483
REMARK  Name = /home/qwerty/github/datacon2025hack/step_04_hit_selection/docking/ligands/lig_502.pdb
REMARK  7 active torsions:
REMARK  status: ('A' for Active; 'I' for Inactive)
REMARK    1  A    between atoms: C1_1  and  C2_2
REMARK    2  A    between atoms: C2_2  and  C3_3
REMARK    3  A    between atoms: C2_2  and  N1_4
REMARK    4  A    between atoms: C4_5  and  C5_7
REMARK    5  A    between atoms: N5_14  and  C9_15
REMARK    6  A    between atoms: C12_18  and  C13_19
REMARK    7  A    between atoms: N6_27  and  C18_28
REMARK                            x       y       z     vdW  Elec       q    Type
REMARK                         _______ _______ _______ _____ _____    ______ ____
ROOT
ATOM      1  C5  UNL     1      12.576   5.578  20.591  0.00  0.00    +0.220 A 
ATOM      2  N2  UNL     1      11.239   5.596  20.421  0.00  0.00    -0.123 NA
ATOM      3  N3  UNL     1      10.760   6.582  21.164  0.00  0.00    -0.113 NA
ATOM      4  C6  UNL     1      11.811   7.149  21.784  0.00  0.00    +0.220 A 
ATOM      5  N4  UNL     1      11.678   8.239  22.713  0.00  0.00    -0.297 N 
ATOM      6  C7  UNL     1      12.407   8.234  23.986  0.00  0.00    +0.127 C 
ATOM      7  C8  UNL     1      11.467   8.616  25.133  0.00  0.00    +0.124 C 
ATOM      8  N5  UNL     1      10.734   9.859  24.838  0.00  0.00    -0.327 N 
ATOM      9  C16 UNL     1      10.735  10.407  23.473  0.00  0.00    +0.124 C 
ATOM     10  C17 UNL     1      10.681   9.280  22.435  0.00  0.00    +0.127 C 
ATOM     11  N6  UNL     1      12.975   6.560  21.433  0.00  0.00    -0.295 N 
ATOM     12  C18 UNL     1      14.339   6.947  21.799  0.00  0.00    +0.154 C 
ENDROOT
BRANCH   8  13
ATOM     13  C9  UNL     1      10.126  10.600  25.920  0.00  0.00    +0.030 A 
ATOM     14  C10 UNL     1      10.873  11.532  26.663  0.00  0.00    +0.023 A 
ATOM     15  C11 UNL     1      10.285  12.244  27.712  0.00  0.00    +0.014 A 
ATOM     16  C12 UNL     1       8.940  12.024  28.056  0.00  0.00    +0.055 A 
ATOM     17  C14 UNL     1       8.186  11.110  27.302  0.00  0.00    +0.014 A 
ATOM     18  C15 UNL     1       8.775  10.400  26.252  0.00  0.00    +0.023 A 
BRANCH  16  19
ATOM     19  C13 UNL     1       8.285  12.820  29.157  0.00  0.00    +0.417 C 
ATOM     20  F1  UNL     1       9.259  13.307  30.007  0.00  0.00    -0.166 F 
ATOM     21  F2  UNL     1       7.577  13.884  28.625  0.00  0.00    -0.166 F 
ATOM     22  F3  UNL     1       7.407  12.035  29.882  0.00  0.00    -0.166 F 
ENDBRANCH  16  19
ENDBRANCH   8  13
BRANCH   1  24
ATOM     23  N1  UNL     1      13.889   3.421  20.682  0.00  0.00    -0.306 N 
ATOM     24  C4  UNL     1      13.453   4.577  19.946  0.00  0.00    +0.282 C 
ATOM     25  O1  UNL     1      13.846   4.752  18.762  0.00  0.00    -0.267 OA
ATOM     26  H8  UNL     1      13.576   3.309  21.673  0.00  0.00    +0.149 HD
BRANCH  23  28
ATOM     27  C1  UNL     1      16.238   2.735  20.418  0.00  0.00    +0.027 C 
ATOM     28  C2  UNL     1      14.776   2.410  20.096  0.00  0.00    +0.067 C 
ATOM     29  C3  UNL     1      14.410   1.019  20.623  0.00  0.00    +0.027 C 
ENDBRANCH  23  28
ENDBRANCH   1  24
TORSDOF 4
ENDMDL
MODEL 6
REMARK VINA RESULT:    -6.160     12.468     15.270
REMARK INTER + INTRA:          -8.084
REMARK INTER:                  -7.518
REMARK INTRA:                  -0.565
REMARK UNBOUND:                -0.483
REMARK  Name = /home/qwerty/github/datacon2025hack/step_04_hit_selection/docking/ligands/lig_502.pdb
REMARK  7 active torsions:
REMARK  status: ('A' for Active; 'I' for Inactive)
REMARK    1  A    between atoms: C1_1  and  C2_2
REMARK    2  A    between atoms: C2_2  and  C3_3
REMARK    3  A    between atoms: C2_2  and  N1_4
REMARK    4  A    between atoms: C4_5  and  C5_7
REMARK    5  A    between atoms: N5_14  and  C9_15
REMARK    6  A    between atoms: C12_18  and  C13_19
REMARK    7  A    between atoms: N6_27  and  C18_28
REMARK                            x       y       z     vdW  Elec       q    Type
REMARK                         _______ _______ _______ _____ _____    ______ ____
ROOT
ATOM      1  C5  UNL     1      14.942   4.931  21.264  0.00  0.00    +0.220 A 
ATOM      2  N2  UNL     1      15.408   6.031  21.889  0.00  0.00    -0.123 NA
ATOM      3  N3  UNL     1      16.499   5.676  22.550  0.00  0.00    -0.113 NA
ATOM      4  C6  UNL     1      16.682   4.362  22.325  0.00  0.00    +0.220 A 
ATOM      5  N4  UNL     1      17.755   3.608  22.915  0.00  0.00    -0.297 N 
ATOM      6  C7  UNL     1      17.509   2.290  23.512  0.00  0.00    +0.127 C 
ATOM      7  C8  UNL     1      18.187   2.197  24.881  0.00  0.00    +0.124 C 
ATOM      8  N5  UNL     1      19.604   2.594  24.809  0.00  0.00    -0.327 N 
ATOM      9  C16 UNL     1      20.116   3.277  23.610  0.00  0.00    +0.124 C 
ATOM     10  C17 UNL     1      19.071   4.247  23.048  0.00  0.00    +0.127 C 
ATOM     11  N6  UNL     1      15.734   3.860  21.503  0.00  0.00    -0.295 N 
ATOM     12  C18 UNL     1      15.641   2.513  20.935  0.00  0.00    +0.154 C 
ENDROOT
BRANCH   8  13
ATOM     13  C9  UNL     1      20.509   2.196  25.863  0.00  0.00    +0.030 A 
ATOM     14  C10 UNL     1      21.736   2.859  26.047  0.00  0.00    +0.023 A 
ATOM     15  C11 UNL     1      22.612   2.470  27.063  0.00  0.00    +0.014 A 
ATOM     16  C12 UNL     1      22.291   1.392  27.905  0.00  0.00    +0.055 A 
ATOM     17  C14 UNL     1      21.058   0.741  27.739  0.00  0.00    +0.014 A 
ATOM     18  C15 UNL     1      20.181   1.132  26.722  0.00  0.00    +0.023 A 
BRANCH  16  19
ATOM     19  C13 UNL     1      23.210   0.994  29.034  0.00  0.00    +0.417 C 
ATOM     20  F1  UNL     1      23.150  -0.376  29.206  0.00  0.00    -0.166 F 
ATOM     21  F2  UNL     1      24.514   1.356  28.742  0.00  0.00    -0.166 F 
ATOM     22  F3  UNL     1      22.842   1.613  30.215  0.00  0.00    -0.166 F 
ENDBRANCH  16  19
ENDBRANCH   8  13
BRANCH   1  24
ATOM     23  N1  UNL     1      12.422   5.019  21.104  0.00  0.00    -0.306 N 
ATOM     24  C4  UNL     1      13.703   4.931  20.457  0.00  0.00    +0.282 C 
ATOM     25  O1  UNL     1      13.766   4.824  19.203  0.00  0.00    -0.267 OA
ATOM     26  H8  UNL     1      12.389   5.078  22.148  0.00  0.00    +0.149 HD
BRANCH  23  28
ATOM     27  C1  UNL     1      10.174   4.023  20.992  0.00  0.00    +0.027 C 
ATOM     28  C2  UNL     1      11.162   5.002  20.352  0.00  0.00    +0.067 C 
ATOM     29  C3  UNL     1      10.561   6.409  20.299  0.00  0.00    +0.027 C 
ENDBRANCH  23  28
ENDBRANCH   1  24
TORSDOF 4
ENDMDL
MODEL 7
REMARK VINA RESULT:    -6.139      7.597      8.508
REMARK INTER + INTRA:          -8.057
REMARK INTER:                  -7.524
REMARK INTRA:                  -0.534
REMARK UNBOUND:                -0.483
REMARK  Name = /home/qwerty/github/datacon2025hack/step_04_hit_selection/docking/ligands/lig_502.pdb
REMARK  7 active torsions:
REMARK  status: ('A' for Active; 'I' for Inactive)
REMARK    1  A    between atoms: C1_1  and  C2_2
REMARK    2  A    between atoms: C2_2  and  C3_3
REMARK    3  A    between atoms: C2_2  and  N1_4
REMARK    4  A    between atoms: C4_5  and  C5_7
REMARK    5  A    between atoms: N5_14  and  C9_15
REMARK    6  A    between atoms: C12_18  and  C13_19
REMARK    7  A    between atoms: N6_27  and  C18_28
REMARK                            x       y       z     vdW  Elec       q    Type
REMARK                         _______ _______ _______ _____ _____    ______ ____
ROOT
ATOM      1  C5  UNL     1      12.321  13.943  33.357  0.00  0.00    +0.220 A 
ATOM      2  N2  UNL     1      12.341  14.973  32.488  0.00  0.00    -0.123 NA
ATOM      3  N3  UNL     1      11.704  14.580  31.396  0.00  0.00    -0.113 NA
ATOM      4  C6  UNL     1      11.307  13.312  31.610  0.00  0.00    +0.220 A 
ATOM      5  N4  UNL     1      10.611  12.532  30.623  0.00  0.00    -0.297 N 
ATOM      6  C7  UNL     1      10.997  11.142  30.355  0.00  0.00    +0.127 C 
ATOM      7  C8  UNL     1      11.096  10.904  28.846  0.00  0.00    +0.124 C 
ATOM      8  N5  UNL     1       9.882  11.360  28.147  0.00  0.00    -0.327 N 
ATOM      9  C16 UNL     1       8.904  12.206  28.849  0.00  0.00    +0.124 C 
ATOM     10  C17 UNL     1       9.611  13.199  29.779  0.00  0.00    +0.127 C 
ATOM     11  N6  UNL     1      11.658  12.881  32.842  0.00  0.00    -0.295 N 
ATOM     12  C18 UNL     1      11.321  11.614  33.493  0.00  0.00    +0.154 C 
ENDROOT
BRANCH   8  13
ATOM     13  C9  UNL     1       9.598  10.868  26.818  0.00  0.00    +0.030 A 
ATOM     14  C10 UNL     1       8.277  10.604  26.415  0.00  0.00    +0.023 A 
ATOM     15  C11 UNL     1       8.005  10.124  25.131  0.00  0.00    +0.014 A 
ATOM     16  C12 UNL     1       9.052   9.875  24.228  0.00  0.00    +0.055 A 
ATOM     17  C14 UNL     1      10.370  10.158  24.619  0.00  0.00    +0.014 A 
ATOM     18  C15 UNL     1      10.641  10.639  25.903  0.00  0.00    +0.023 A 
BRANCH  16  19
ATOM     19  C13 UNL     1       8.764   9.399  22.826  0.00  0.00    +0.417 C 
ATOM     20  F1  UNL     1       9.088  10.401  21.931  0.00  0.00    -0.166 F 
ATOM     21  F2  UNL     1       9.515   8.274  22.536  0.00  0.00    -0.166 F 
ATOM     22  F3  UNL     1       7.426   9.077  22.676  0.00  0.00    -0.166 F 
ENDBRANCH  16  19
ENDBRANCH   8  13
BRANCH   1  24
ATOM     23  N1  UNL     1      14.411  13.955  34.776  0.00  0.00    -0.306 N 
ATOM     24  C4  UNL     1      12.977  13.997  34.681  0.00  0.00    +0.282 C 
ATOM     25  O1  UNL     1      12.280  14.048  35.730  0.00  0.00    -0.267 OA
ATOM     26  H8  UNL     1      14.971  13.884  33.895  0.00  0.00    +0.149 HD
BRANCH  23  28
ATOM     27  C1  UNL     1      16.398  13.158  35.990  0.00  0.00    +0.027 C 
ATOM     28  C2  UNL     1      15.111  13.985  36.065  0.00  0.00    +0.067 C 
ATOM     29  C3  UNL     1      15.427  15.430  36.460  0.00  0.00    +0.027 C 
ENDBRANCH  23  28
ENDBRANCH   1  24
TORSDOF 4
ENDMDL
MODEL 8
REMARK VINA RESULT:    -6.095     12.379     15.041
REMARK INTER + INTRA:          -8.003
REMARK INTER:                  -7.481
REMARK INTRA:                  -0.522
REMARK UNBOUND:                -0.483
REMARK  Name = /home/qwerty/github/datacon2025hack/step_04_hit_selection/docking/ligands/lig_502.pdb
REMARK  7 active torsions:
REMARK  status: ('A' for Active; 'I' for Inactive)
REMARK    1  A    between atoms: C1_1  and  C2_2
REMARK    2  A    between atoms: C2_2  and  C3_3
REMARK    3  A    between atoms: C2_2  and  N1_4
REMARK    4  A    between atoms: C4_5  and  C5_7
REMARK    5  A    between atoms: N5_14  and  C9_15
REMARK    6  A    between atoms: C12_18  and  C13_19
REMARK    7  A    between atoms: N6_27  and  C18_28
REMARK                            x       y       z     vdW  Elec       q    Type
REMARK                         _______ _______ _______ _____ _____    ______ ____
ROOT
ATOM      1  C5  UNL     1      16.865   7.342  36.364  0.00  0.00    +0.220 A 
ATOM      2  N2  UNL     1      15.898   6.573  35.824  0.00  0.00    -0.123 NA
ATOM      3  N3  UNL     1      16.495   5.564  35.209  0.00  0.00    -0.113 NA
ATOM      4  C6  UNL     1      17.819   5.733  35.376  0.00  0.00    +0.220 A 
ATOM      5  N4  UNL     1      18.799   4.846  34.810  0.00  0.00    -0.297 N 
ATOM      6  C7  UNL     1      19.990   5.374  34.133  0.00  0.00    +0.127 C 
ATOM      7  C8  UNL     1      20.204   4.649  32.802  0.00  0.00    +0.124 C 
ATOM      8  N5  UNL     1      20.182   3.187  32.974  0.00  0.00    -0.327 N 
ATOM      9  C16 UNL     1      19.695   2.602  34.233  0.00  0.00    +0.124 C 
ATOM     10  C17 UNL     1      18.511   3.406  34.784  0.00  0.00    +0.127 C 
ATOM     11  N6  UNL     1      18.093   6.830  36.116  0.00  0.00    -0.295 N 
ATOM     12  C18 UNL     1      19.391   7.296  36.608  0.00  0.00    +0.154 C 
ENDROOT
BRANCH   8  13
ATOM     13  C9  UNL     1      20.760   2.341  31.954  0.00  0.00    +0.030 A 
ATOM     14  C10 UNL     1      20.112   1.161  31.546  0.00  0.00    +0.023 A 
ATOM     15  C11 UNL     1      20.675   0.343  30.563  0.00  0.00    +0.014 A 
ATOM     16  C12 UNL     1      21.910   0.674  29.982  0.00  0.00    +0.055 A 
ATOM     17  C14 UNL     1      22.549   1.862  30.371  0.00  0.00    +0.014 A 
ATOM     18  C15 UNL     1      21.985   2.681  31.353  0.00  0.00    +0.023 A 
BRANCH  16  19
ATOM     19  C13 UNL     1      22.502  -0.180  28.888  0.00  0.00    +0.417 C 
ATOM     20  F1  UNL     1      23.827   0.167  28.707  0.00  0.00    -0.166 F 
ATOM     21  F2  UNL     1      22.429  -1.519  29.231  0.00  0.00    -0.166 F 
ATOM     22  F3  UNL     1      21.822  -0.002  27.696  0.00  0.00    -0.166 F 
ENDBRANCH  16  19
ENDBRANCH   8  13
BRANCH   1  24
ATOM     23  N1  UNL     1      16.017   9.722  36.407  0.00  0.00    -0.306 N 
ATOM     24  C4  UNL     1      16.579   8.593  37.098  0.00  0.00    +0.282 C 
ATOM     25  O1  UNL     1      16.855   8.683  38.325  0.00  0.00    -0.267 OA
ATOM     26  H8  UNL     1      15.822   9.637  35.383  0.00  0.00    +0.149 HD
BRANCH  23  28
ATOM     27  C1  UNL     1      16.800  12.033  36.728  0.00  0.00    +0.027 C 
ATOM     28  C2  UNL     1      15.735  10.992  37.084  0.00  0.00    +0.067 C 
ATOM     29  C3  UNL     1      14.343  11.499  36.694  0.00  0.00    +0.027 C 
ENDBRANCH  23  28
ENDBRANCH   1  24
TORSDOF 4
ENDMDL
MODEL 9
REMARK VINA RESULT:    -6.050     12.411     14.310
REMARK INTER + INTRA:          -7.947
REMARK INTER:                  -7.449
REMARK INTRA:                  -0.499
REMARK UNBOUND:                -0.483
REMARK  Name = /home/qwerty/github/datacon2025hack/step_04_hit_selection/docking/ligands/lig_502.pdb
REMARK  7 active torsions:
REMARK  status: ('A' for Active; 'I' for Inactive)
REMARK    1  A    between atoms: C1_1  and  C2_2
REMARK    2  A    between atoms: C2_2  and  C3_3
REMARK    3  A    between atoms: C2_2  and  N1_4
REMARK    4  A    between atoms: C4_5  and  C5_7
REMARK    5  A    between atoms: N5_14  and  C9_15
REMARK    6  A    between atoms: C12_18  and  C13_19
REMARK    7  A    between atoms: N6_27  and  C18_28
REMARK                            x       y       z     vdW  Elec       q    Type
REMARK                         _______ _______ _______ _____ _____    ______ ____
ROOT
ATOM      1  C5  UNL     1      22.285   4.549  32.230  0.00  0.00    +0.220 A 
ATOM      2  N2  UNL     1      22.571   3.259  32.493  0.00  0.00    -0.123 NA
ATOM      3  N3  UNL     1      22.128   2.540  31.474  0.00  0.00    -0.113 NA
ATOM      4  C6  UNL     1      21.571   3.402  30.602  0.00  0.00    +0.220 A 
ATOM      5  N4  UNL     1      20.942   2.982  29.379  0.00  0.00    -0.297 N 
ATOM      6  C7  UNL     1      19.645   3.534  28.972  0.00  0.00    +0.127 C 
ATOM      7  C8  UNL     1      18.709   2.408  28.527  0.00  0.00    +0.124 C 
ATOM      8  N5  UNL     1      19.353   1.532  27.533  0.00  0.00    -0.327 N 
ATOM      9  C16 UNL     1      20.804   1.621  27.306  0.00  0.00    +0.124 C 
ATOM     10  C17 UNL     1      21.546   1.877  28.623  0.00  0.00    +0.127 C 
ATOM     11  N6  UNL     1      21.668   4.679  31.032  0.00  0.00    -0.295 N 
ATOM     12  C18 UNL     1      21.287   5.907  30.332  0.00  0.00    +0.154 C 
ENDROOT
BRANCH   8  13
ATOM     13  C9  UNL     1      18.535   0.683  26.697  0.00  0.00    +0.030 A 
ATOM     14  C10 UNL     1      17.238   0.316  27.095  0.00  0.00    +0.023 A 
ATOM     15  C11 UNL     1      16.451  -0.510  26.288  0.00  0.00    +0.014 A 
ATOM     16  C12 UNL     1      16.953  -1.006  25.073  0.00  0.00    +0.055 A 
ATOM     17  C14 UNL     1      18.240  -0.624  24.662  0.00  0.00    +0.014 A 
ATOM     18  C15 UNL     1      19.026   0.203  25.470  0.00  0.00    +0.023 A 
BRANCH  16  19
ATOM     19  C13 UNL     1      16.094  -1.861  24.175  0.00  0.00    +0.417 C 
ATOM     20  F1  UNL     1      14.959  -1.155  23.825  0.00  0.00    -0.166 F 
ATOM     21  F2  UNL     1      16.788  -2.199  23.025  0.00  0.00    -0.166 F 
ATOM     22  F3  UNL     1      15.718  -3.030  24.813  0.00  0.00    -0.166 F 
ENDBRANCH  16  19
ENDBRANCH   8  13
BRANCH   1  24
ATOM     23  N1  UNL     1      21.933   5.712  34.445  0.00  0.00    -0.306 N 
ATOM     24  C4  UNL     1      22.594   5.648  33.170  0.00  0.00    +0.282 C 
ATOM     25  O1  UNL     1      23.415   6.547  32.843  0.00  0.00    -0.267 OA
ATOM     26  H8  UNL     1      21.234   4.973  34.686  0.00  0.00    +0.149 HD
BRANCH  23  28
ATOM     27  C1  UNL     1      20.926   7.087  36.221  0.00  0.00    +0.027 C 
ATOM     28  C2  UNL     1      22.188   6.792  35.405  0.00  0.00    +0.067 C 
ATOM     29  C3  UNL     1      23.346   6.410  36.332  0.00  0.00    +0.027 C 
ENDBRANCH  23  28
ENDBRANCH   1  24
TORSDOF 4
ENDMDL
