REMARK  Name = /home/qwerty/github/datacon2025hack/step_04_hit_selection/docking/ligands/lig_151.pdb
REMARK  9 active torsions:
REMARK  status: ('A' for Active; 'I' for Inactive)
REMARK    1  A    between atoms: C1_1  and  C2_2
REMARK    2  A    between atoms: C5_5  and  C6_6
REMARK    3  A    between atoms: C9_9  and  C10_10
REMARK    4  A    between atoms: C11_11  and  N1_12
REMARK    5  A    between atoms: N2_15  and  C13_16
REMARK    6  A    between atoms: C13_16  and  C14_17
REMARK    7  A    between atoms: C14_17  and  O2_18
REMARK    8  A    between atoms: C14_17  and  C15_19
REMARK    9  A    between atoms: C18_22  and  O3_23
REMARK                            x       y       z     vdW  Elec       q    Type
REMARK                         _______ _______ _______ _____ _____    ______ ____
ROOT
ATOM      1  N1  UNL     1      -0.275  -1.229  -0.336  0.00  0.00    -0.269 N 
ATOM      2  C12 UNL     1       0.929  -0.605   0.131  0.00  0.00    +0.304 C 
ATOM      3  O1  UNL     1       0.926   0.051   1.209  0.00  0.00    -0.253 OA
ATOM      4  N2  UNL     1       2.130  -0.709  -0.642  0.00  0.00    -0.296 N 
ATOM      5  H11 UNL     1      -0.317  -1.537  -1.334  0.00  0.00    +0.156 HD
ATOM      6  H12 UNL     1       2.102  -1.256  -1.533  0.00  0.00    +0.150 HD
ENDROOT
BRANCH   1  12
ATOM      7  C6  UNL     1      -3.834  -0.537   0.579  0.00  0.00    -0.016 A 
ATOM      8  C7  UNL     1      -3.903  -1.122   1.854  0.00  0.00    +0.009 A 
ATOM      9  C8  UNL     1      -2.793  -1.769   2.399  0.00  0.00    +0.006 A 
ATOM     10  C9  UNL     1      -1.588  -1.846   1.684  0.00  0.00    -0.029 A 
ATOM     11  C10 UNL     1      -0.428  -2.590   2.290  0.00  0.00    +0.045 C 
ATOM     12  C11 UNL     1      -1.494  -1.218   0.421  0.00  0.00    +0.038 A 
ATOM     13  C21 UNL     1      -2.622  -0.596  -0.131  0.00  0.00    +0.032 A 
BRANCH   7  18
ATOM     14  C1  UNL     1      -8.453   2.126  -1.718  0.00  0.00    +0.044 C 
ATOM     15  C2  UNL     1      -7.279   1.412  -1.117  0.00  0.00    -0.050 A 
ATOM     16  C3  UNL     1      -6.962   1.587   0.238  0.00  0.00    +0.004 A 
ATOM     17  C4  UNL     1      -5.847   0.951   0.790  0.00  0.00    +0.009 A 
ATOM     18  C5  UNL     1      -5.020   0.139  -0.007  0.00  0.00    -0.018 A 
ATOM     19  C22 UNL     1      -5.332  -0.019  -1.370  0.00  0.00    +0.009 A 
ATOM     20  C23 UNL     1      -6.448   0.617  -1.920  0.00  0.00    +0.004 A 
ENDBRANCH   7  18
ENDBRANCH   1  12
BRANCH   4  21
ATOM     21  C13 UNL     1       3.377  -0.084  -0.203  0.00  0.00    +0.141 C 
BRANCH  21  22
ATOM     22  C14 UNL     1       4.518  -0.352  -1.205  0.00  0.00    +0.162 C 
BRANCH  22  23
ATOM     23  C15 UNL     1       5.836   0.203  -0.703  0.00  0.00    -0.017 A 
ATOM     24  C16 UNL     1       6.893  -0.668  -0.382  0.00  0.00    +0.010 A 
ATOM     25  C17 UNL     1       8.109  -0.165   0.088  0.00  0.00    +0.046 A 
ATOM     26  C18 UNL     1       8.286   1.215   0.247  0.00  0.00    +0.117 A 
ATOM     27  C19 UNL     1       7.241   2.088  -0.066  0.00  0.00    +0.046 A 
ATOM     28  C20 UNL     1       6.023   1.589  -0.537  0.00  0.00    +0.010 A 
BRANCH  26  29
ATOM     29  O3  UNL     1       9.494   1.728   0.715  0.00  0.00    -0.507 OA
ATOM     30  H19 UNL     1      10.271   1.121   0.951  0.00  0.00    +0.292 HD
ENDBRANCH  26  29
ENDBRANCH  22  23
BRANCH  22  31
ATOM     31  O2  UNL     1       4.219   0.160  -2.482  0.00  0.00    -0.386 OA
ATOM     32  H16 UNL     1       3.959   1.113  -2.380  0.00  0.00    +0.210 HD
ENDBRANCH  22  31
ENDBRANCH  21  22
ENDBRANCH   4  21
TORSDOF 7
