REMARK  Name = /home/qwerty/github/datacon2025hack/step_04_hit_selection/docking/ligands/lig_285.pdb
REMARK  5 active torsions:
REMARK  status: ('A' for Active; 'I' for Inactive)
REMARK    1  A    between atoms: C1_1  and  O1_2
REMARK    2  A    between atoms: O1_2  and  C2_3
REMARK    3  A    between atoms: C9_11  and  N1_12
REMARK    4  A    between atoms: N2_15  and  C11_16
REMARK    5  A    between atoms: C15_20  and  C16_21
REMARK                            x       y       z     vdW  Elec       q    Type
REMARK                         _______ _______ _______ _____ _____    ______ ____
ROOT
ATOM      1  N1  UNL     1       0.460  -1.246   0.561  0.00  0.00    -0.293 N 
ATOM      2  C10 UNL     1       1.588  -0.617  -0.064  0.00  0.00    +0.304 C 
ATOM      3  O3  UNL     1       1.502   0.573  -0.476  0.00  0.00    -0.252 OA
ATOM      4  N2  UNL     1       2.803  -1.358  -0.245  0.00  0.00    -0.267 N 
ATOM      5  H10 UNL     1       0.585  -2.211   0.943  0.00  0.00    +0.151 HD
ATOM      6  H11 UNL     1       2.756  -2.399  -0.164  0.00  0.00    +0.156 HD
ENDROOT
BRANCH   1  15
ATOM      7  C2  UNL     1      -4.953   0.356   0.942  0.00  0.00    +0.162 A 
ATOM      8  C3  UNL     1      -5.624   0.909  -0.166  0.00  0.00    +0.049 A 
ATOM      9  C4  UNL     1      -4.983   1.001  -1.404  0.00  0.00    +0.004 A 
ATOM     10  C5  UNL     1      -3.669   0.551  -1.551  0.00  0.00    +0.007 A 
ATOM     11  C6  UNL     1      -2.982   0.013  -0.455  0.00  0.00    -0.000 A 
ATOM     12  C7  UNL     1      -3.636  -0.100   0.789  0.00  0.00    +0.165 A 
ATOM     13  O2  UNL     1      -2.962  -0.648   1.888  0.00  0.00    -0.486 OA
ATOM     14  C8  UNL     1      -1.697  -1.296   1.758  0.00  0.00    +0.251 C 
ATOM     15  C9  UNL     1      -0.828  -0.564   0.725  0.00  0.00    +0.116 C 
ATOM     16  C18 UNL     1      -1.573  -0.500  -0.621  0.00  0.00    +0.064 C 
BRANCH   7  18
ATOM     17  C1  UNL     1      -6.888   0.660   2.499  0.00  0.00    +0.277 C 
ATOM     18  O1  UNL     1      -5.560   0.239   2.202  0.00  0.00    -0.491 OA
ENDBRANCH   7  18
ENDBRANCH   1  15
BRANCH   4  19
ATOM     19  C11 UNL     1       4.027  -0.771  -0.714  0.00  0.00    +0.070 A 
ATOM     20  C12 UNL     1       4.780  -1.444  -1.686  0.00  0.00    +0.026 A 
ATOM     21  C13 UNL     1       5.981  -0.905  -2.149  0.00  0.00    +0.002 A 
ATOM     22  C14 UNL     1       6.452   0.304  -1.633  0.00  0.00    +0.006 A 
ATOM     23  C15 UNL     1       5.725   0.981  -0.641  0.00  0.00    -0.013 A 
ATOM     24  C16 UNL     1       6.242   2.266  -0.063  0.00  0.00    +0.047 C 
ATOM     25  C17 UNL     1       4.515   0.436  -0.175  0.00  0.00    +0.147 A 
ATOM     26  F1  UNL     1       3.846   1.054   0.833  0.00  0.00    -0.203 F 
ENDBRANCH   4  19
TORSDOF 3
