REMARK  Name = /home/qwerty/github/datacon2025hack/step_04_hit_selection/docking/ligands/lig_308.pdb
REMARK  4 active torsions:
REMARK  status: ('A' for Active; 'I' for Inactive)
REMARK    1  A    between atoms: C1_1  and  C2_2
REMARK    2  A    between atoms: C9_10  and  C10_11
REMARK    3  A    between atoms: N1_13  and  C11_14
REMARK    4  A    between atoms: N2_25  and  C22_26
REMARK                            x       y       z     vdW  Elec       q    Type
REMARK                         _______ _______ _______ _____ _____    ______ ____
ROOT
ATOM      1  C10 UNL     1      -0.022  -0.411  -1.569  0.00  0.00    +0.253 C 
ATOM      2  O2  UNL     1      -0.283  -0.220  -2.788  0.00  0.00    -0.270 OA
ATOM      3  N1  UNL     1      -1.076  -0.743  -0.648  0.00  0.00    -0.281 N 
ATOM      4  H7  UNL     1      -0.837  -0.898   0.357  0.00  0.00    +0.155 HD
ENDROOT
BRANCH   1  14
ATOM      5  C1  UNL     1       5.118   1.813   3.385  0.00  0.00    +0.044 C 
ATOM      6  C2  UNL     1       4.761   1.135   2.095  0.00  0.00    -0.050 A 
ATOM      7  C3  UNL     1       5.750   0.548   1.300  0.00  0.00    +0.005 A 
ATOM      8  C4  UNL     1       5.411  -0.088   0.105  0.00  0.00    +0.027 A 
ATOM      9  C5  UNL     1       4.066  -0.160  -0.325  0.00  0.00    +0.053 A 
ATOM     10  C6  UNL     1       3.062   0.426   0.491  0.00  0.00    +0.046 A 
ATOM     11  C7  UNL     1       3.423   1.068   1.693  0.00  0.00    +0.017 A 
ATOM     12  C8  UNL     1       1.718   0.362   0.084  0.00  0.00    +0.202 A 
ATOM     13  O1  UNL     1       0.819   0.919   0.774  0.00  0.00    -0.286 OA
ATOM     14  C9  UNL     1       1.381  -0.299  -1.107  0.00  0.00    +0.100 A 
ATOM     15  C21 UNL     1       2.403  -0.843  -1.893  0.00  0.00    +0.102 A 
ATOM     16  N2  UNL     1       3.714  -0.777  -1.509  0.00  0.00    -0.349 N 
ATOM     17  C22 UNL     1       4.725  -1.384  -2.390  0.00  0.00    +0.149 C 
ENDBRANCH   1  14
BRANCH   3  18
ATOM     18  C11 UNL     1      -2.458  -0.851  -1.032  0.00  0.00    +0.037 A 
ATOM     19  C12 UNL     1      -2.812  -1.605  -2.163  0.00  0.00    +0.023 A 
ATOM     20  C13 UNL     1      -4.150  -1.765  -2.517  0.00  0.00    +0.002 A 
ATOM     21  C14 UNL     1      -5.153  -1.190  -1.741  0.00  0.00    +0.004 A 
ATOM     22  C15 UNL     1      -4.832  -0.454  -0.591  0.00  0.00    -0.042 A 
ATOM     23  C16 UNL     1      -3.471  -0.258  -0.241  0.00  0.00    -0.023 A 
ATOM     24  C17 UNL     1      -3.095   0.513   1.011  0.00  0.00    +0.037 C 
ATOM     25  C18 UNL     1      -4.226   1.404   1.531  0.00  0.00    +0.005 C 
ATOM     26  C19 UNL     1      -5.534   0.620   1.591  0.00  0.00    +0.005 C 
ATOM     27  C20 UNL     1      -5.957   0.192   0.185  0.00  0.00    +0.035 C 
ENDBRANCH   3  18
TORSDOF 2
