REMARK  Name = /home/qwerty/github/datacon2025hack/step_04_hit_selection/docking/ligands/lig_792.pdb
REMARK  4 active torsions:
REMARK  status: ('A' for Active; 'I' for Inactive)
REMARK    1  A    between atoms: C6_9  and  C7_10
REMARK    2  A    between atoms: N4_17  and  C13_18
REMARK    3  A    between atoms: C13_18  and  C14_19
REMARK    4  A    between atoms: C14_19  and  O1_20
REMARK                            x       y       z     vdW  Elec       q    Type
REMARK                         _______ _______ _______ _____ _____    ______ ____
ROOT
ATOM      1  C1  UNL     1      -5.846   0.232   0.947  0.00  0.00    +0.008 C 
ATOM      2  C2  UNL     1      -4.601  -0.125   0.603  0.00  0.00    -0.074 C 
ATOM      3  C3  UNL     1      -4.085   0.184  -0.784  0.00  0.00    +0.049 C 
ATOM      4  C4  UNL     1      -2.695  -0.422  -0.998  0.00  0.00    +0.112 C 
ATOM      5  N1  UNL     1      -1.825  -0.099   0.141  0.00  0.00    -0.299 N 
ATOM      6  C5  UNL     1      -0.686   0.749  -0.073  0.00  0.00    +0.220 A 
ATOM      7  N2  UNL     1      -0.750   1.894  -0.778  0.00  0.00    -0.113 NA
ATOM      8  N3  UNL     1       0.487   2.357  -0.868  0.00  0.00    -0.128 NA
ATOM      9  C6  UNL     1       1.286   1.485  -0.222  0.00  0.00    +0.166 A 
ATOM     10  N4  UNL     1       0.581   0.448   0.290  0.00  0.00    -0.292 N 
ATOM     11  C17 UNL     1      -2.280  -0.357   1.518  0.00  0.00    +0.112 C 
ATOM     12  C18 UNL     1      -3.722  -0.888   1.567  0.00  0.00    +0.049 C 
ENDROOT
BRANCH   9  13
ATOM     13  C7  UNL     1       2.750   1.648  -0.154  0.00  0.00    +0.019 A 
ATOM     14  C8  UNL     1       3.427   1.553   1.074  0.00  0.00    +0.012 A 
ATOM     15  C9  UNL     1       4.813   1.730   1.129  0.00  0.00    +0.016 A 
ATOM     16  C10 UNL     1       5.530   2.017  -0.037  0.00  0.00    +0.018 A 
ATOM     17 BR1  UNL     1       7.423   2.259   0.041  0.00  0.00    -0.050 Br
ATOM     18  C11 UNL     1       4.859   2.134  -1.258  0.00  0.00    +0.016 A 
ATOM     19  C12 UNL     1       3.473   1.958  -1.316  0.00  0.00    +0.012 A 
ENDBRANCH   9  13
BRANCH  10  20
ATOM     20  C13 UNL     1       1.091  -0.825   0.815  0.00  0.00    +0.161 C 
BRANCH  20  21
ATOM     21  C14 UNL     1       0.862  -1.985  -0.174  0.00  0.00    +0.084 C 
ATOM     22  C15 UNL     1       0.928  -1.765  -1.682  0.00  0.00    +0.039 C 
ATOM     23  C16 UNL     1       2.086  -2.438  -0.961  0.00  0.00    +0.039 C 
BRANCH  21  24
ATOM     24  O1  UNL     1       0.067  -3.057   0.248  0.00  0.00    -0.387 OA
ATOM     25  H13 UNL     1      -0.870  -2.745   0.162  0.00  0.00    +0.210 HD
ENDBRANCH  21  24
ENDBRANCH  20  21
ENDBRANCH  10  20
TORSDOF 4
