REMARK  Name = /home/qwerty/github/datacon2025hack/step_04_hit_selection/docking/ligands/lig_434.pdb
REMARK  9 active torsions:
REMARK  status: ('A' for Active; 'I' for Inactive)
REMARK    1  A    between atoms: C1_1  and  C2_2
REMARK    2  A    between atoms: C2_2  and  C3_3
REMARK    3  A    between atoms: C3_3  and  C4_4
REMARK    4  A    between atoms: C3_3  and  N1_5
REMARK    5  A    between atoms: N1_5  and  C5_6
REMARK    6  A    between atoms: N1_5  and  C6_7
REMARK    7  A    between atoms: C6_7  and  C7_8
REMARK    8  A    between atoms: C7_8  and  N2_9
REMARK    9  A    between atoms: C8_10  and  C9_11
REMARK                            x       y       z     vdW  Elec       q    Type
REMARK                         _______ _______ _______ _____ _____    ______ ____
ROOT
ATOM      1  N2  UNL     1      -0.351   1.777   0.271  0.00  0.00    -0.294 N 
ATOM      2  C8  UNL     1      -0.062   2.937  -0.367  0.00  0.00    +0.165 A 
ATOM      3  N3  UNL     1      -1.124   3.405  -1.051  0.00  0.00    -0.128 NA
ATOM      4  N4  UNL     1      -2.115   2.548  -0.867  0.00  0.00    -0.113 NA
ATOM      5  C15 UNL     1      -1.645   1.572  -0.066  0.00  0.00    +0.220 A 
ATOM      6  N5  UNL     1      -2.394   0.380   0.222  0.00  0.00    -0.299 N 
ATOM      7  C16 UNL     1      -2.430  -0.175   1.582  0.00  0.00    +0.110 C 
ATOM      8  C17 UNL     1      -3.846  -0.645   1.976  0.00  0.00    +0.042 C 
ATOM      9  C18 UNL     1      -4.689  -1.172   0.789  0.00  0.00    +0.085 C 
ATOM     10  N6  UNL     1      -5.524  -2.302   1.206  0.00  0.00    -0.278 N 
ATOM     11  C19 UNL     1      -5.886  -3.329   0.276  0.00  0.00    +0.401 C 
ATOM     12  O1  UNL     1      -6.639  -4.271   0.635  0.00  0.00    -0.226 OA
ATOM     13  O2  UNL     1      -5.371  -3.308  -1.023  0.00  0.00    -0.450 OA
ATOM     14  C20 UNL     1      -4.663  -2.177  -1.522  0.00  0.00    +0.240 C 
ATOM     15  C21 UNL     1      -3.800  -1.562  -0.410  0.00  0.00    +0.064 C 
ATOM     16  C22 UNL     1      -3.046  -0.317  -0.897  0.00  0.00    +0.116 C 
ATOM     17  H26 UNL     1      -6.006  -2.270   2.132  0.00  0.00    +0.152 HD
ENDROOT
BRANCH   2  18
ATOM     18  C9  UNL     1       1.261   3.585  -0.410  0.00  0.00    +0.019 A 
ATOM     19  C10 UNL     1       1.824   3.942  -1.644  0.00  0.00    +0.013 A 
ATOM     20  C11 UNL     1       3.078   4.557  -1.694  0.00  0.00    +0.021 A 
ATOM     21  C12 UNL     1       3.770   4.836  -0.511  0.00  0.00    +0.041 A 
ATOM     22 CL1  UNL     1       5.344   5.609  -0.576  0.00  0.00    -0.084 Cl
ATOM     23  C13 UNL     1       3.203   4.505   0.723  0.00  0.00    +0.021 A 
ATOM     24  C14 UNL     1       1.950   3.888   0.775  0.00  0.00    +0.013 A 
ENDBRANCH   2  18
BRANCH   1  25
ATOM     25  C7  UNL     1       0.600   0.808   0.832  0.00  0.00    +0.142 C 
BRANCH  25  26
ATOM     26  C6  UNL     1       0.922  -0.286  -0.193  0.00  0.00    +0.106 C 
BRANCH  26  27
ATOM     27  N1  UNL     1       2.053  -1.120   0.290  0.00  0.00    -0.301 NA
ATOM     28  C5  UNL     1       1.511  -2.226   1.113  0.00  0.00    +0.105 C 
BRANCH  27  29
ATOM     29  C3  UNL     1       2.911  -1.629  -0.825  0.00  0.00    +0.053 C 
ATOM     30  C4  UNL     1       3.556  -0.470  -1.627  0.00  0.00    +0.024 C 
BRANCH  29  32
ATOM     31  C1  UNL     1       4.980  -1.917   0.692  0.00  0.00    +0.005 C 
ATOM     32  C2  UNL     1       4.039  -2.575  -0.323  0.00  0.00    +0.015 C 
ENDBRANCH  29  32
ENDBRANCH  27  29
ENDBRANCH  26  27
ENDBRANCH  25  26
ENDBRANCH   1  25
TORSDOF 6
