MODEL 1
REMARK VINA RESULT:    -6.495      0.000      0.000
REMARK INTER + INTRA:         -10.023
REMARK INTER:                  -9.153
REMARK INTRA:                  -0.870
REMARK UNBOUND:                -0.870
REMARK  Name = /home/qwerty/github/datacon2025hack/step_04_hit_selection/docking/ligands/lig_476.pdb
REMARK  7 active torsions:
REMARK  status: ('A' for Active; 'I' for Inactive)
REMARK    1  A    between atoms: C2_2  and  C3_3
REMARK    2  A    between atoms: C3_3  and  N1_4
REMARK    3  A    between atoms: N2_9  and  C6_10
REMARK    4  A    between atoms: C6_10  and  C7_11
REMARK    5  A    between atoms: N3_13  and  C8_14
REMARK    6  A    between atoms: C11_17  and  C12_18
REMARK    7  A    between atoms: N4_20  and  C13_21
REMARK                            x       y       z     vdW  Elec       q    Type
REMARK                         _______ _______ _______ _____ _____    ______ ____
ROOT
ATOM      1  C7  UNL     1      17.052  13.245  35.713  0.00  0.00    +0.235 C 
ATOM      2  O3  UNL     1      17.274  13.020  34.491  0.00  0.00    -0.274 OA
ATOM      3  N3  UNL     1      17.894  12.671  36.726  0.00  0.00    -0.284 N 
ATOM      4  H8  UNL     1      17.869  13.099  37.679  0.00  0.00    +0.155 HD
ENDROOT
BRANCH   3   5
ATOM      5  C8  UNL     1      18.841  11.614  36.488  0.00  0.00    +0.033 A 
ATOM      6  C9  UNL     1      20.041  11.905  35.827  0.00  0.00    +0.024 A 
ATOM      7  C10 UNL     1      20.994  10.905  35.607  0.00  0.00    +0.015 A 
ATOM      8  C11 UNL     1      20.766   9.591  36.055  0.00  0.00    +0.037 A 
ATOM      9  C18 UNL     1      19.577   9.310  36.750  0.00  0.00    +0.015 A 
ATOM     10  C19 UNL     1      18.626  10.311  36.968  0.00  0.00    +0.024 A 
BRANCH   8  11
ATOM     11  C12 UNL     1      21.775   8.524  35.844  0.00  0.00    +0.244 C 
ATOM     12  O4  UNL     1      22.080   7.764  36.803  0.00  0.00    -0.270 OA
ATOM     13  N4  UNL     1      22.401   8.334  34.565  0.00  0.00    -0.308 N 
ATOM     14  H11 UNL     1      21.939   8.730  33.716  0.00  0.00    +0.149 HD
BRANCH  13  15
ATOM     15  C13 UNL     1      23.512   7.397  34.376  0.00  0.00    +0.073 C 
ATOM     16  C14 UNL     1      24.527   7.921  33.370  0.00  0.00    +0.022 C 
ATOM     17  C15 UNL     1      25.191   6.679  32.792  0.00  0.00    +0.002 C 
ATOM     18  C16 UNL     1      24.214   5.522  33.006  0.00  0.00    +0.002 C 
ATOM     19  C17 UNL     1      23.032   6.076  33.797  0.00  0.00    +0.022 C 
ENDBRANCH  13  15
ENDBRANCH   8  11
ENDBRANCH   3   5
BRANCH   1  20
ATOM     20  C6  UNL     1      15.893  14.115  36.103  0.00  0.00    +0.214 C 
BRANCH  20  26
ATOM     21  N1  UNL     1      12.283  13.026  35.862  0.00  0.00    -0.214 N 
ATOM     22  C4  UNL     1      12.825  12.063  36.760  0.00  0.00    +0.310 C 
ATOM     23  O1  UNL     1      12.157  11.161  37.333  0.00  0.00    -0.264 OA
ATOM     24  C5  UNL     1      14.253  12.289  36.895  0.00  0.00    +0.310 C 
ATOM     25  O2  UNL     1      15.036  11.661  37.656  0.00  0.00    -0.264 OA
ATOM     26  N2  UNL     1      14.640  13.366  36.045  0.00  0.00    -0.209 N 
ATOM     27  C20 UNL     1      13.414  13.798  35.445  0.00  0.00    +0.319 C 
ATOM     28  O5  UNL     1      13.336  14.768  34.644  0.00  0.00    -0.252 OA
BRANCH  21  29
ATOM     29  C3  UNL     1      10.944  13.030  35.279  0.00  0.00    +0.145 C 
BRANCH  29  31
ATOM     30  C1  UNL     1       9.375  14.923  35.580  0.00  0.00    +0.005 C 
ATOM     31  C2  UNL     1      10.013  13.874  36.101  0.00  0.00    -0.015 C 
ENDBRANCH  29  31
ENDBRANCH  21  29
ENDBRANCH  20  26
ENDBRANCH   1  20
TORSDOF 7
ENDMDL
MODEL 2
REMARK VINA RESULT:    -6.477     14.840     16.934
REMARK INTER + INTRA:          -9.998
REMARK INTER:                  -9.194
REMARK INTRA:                  -0.804
REMARK UNBOUND:                -0.870
REMARK  Name = /home/qwerty/github/datacon2025hack/step_04_hit_selection/docking/ligands/lig_476.pdb
REMARK  7 active torsions:
REMARK  status: ('A' for Active; 'I' for Inactive)
REMARK    1  A    between atoms: C2_2  and  C3_3
REMARK    2  A    between atoms: C3_3  and  N1_4
REMARK    3  A    between atoms: N2_9  and  C6_10
REMARK    4  A    between atoms: C6_10  and  C7_11
REMARK    5  A    between atoms: N3_13  and  C8_14
REMARK    6  A    between atoms: C11_17  and  C12_18
REMARK    7  A    between atoms: N4_20  and  C13_21
REMARK                            x       y       z     vdW  Elec       q    Type
REMARK                         _______ _______ _______ _____ _____    ______ ____
ROOT
ATOM      1  C7  UNL     1      19.546  13.589  20.529  0.00  0.00    +0.235 C 
ATOM      2  O3  UNL     1      19.550  12.976  21.632  0.00  0.00    -0.274 OA
ATOM      3  N3  UNL     1      19.006  12.969  19.350  0.00  0.00    -0.284 N 
ATOM      4  H8  UNL     1      18.753  13.588  18.548  0.00  0.00    +0.155 HD
ENDROOT
BRANCH   3   5
ATOM      5  C8  UNL     1      18.697  11.568  19.243  0.00  0.00    +0.033 A 
ATOM      6  C9  UNL     1      19.720  10.661  18.935  0.00  0.00    +0.024 A 
ATOM      7  C10 UNL     1      19.457   9.291  18.852  0.00  0.00    +0.015 A 
ATOM      8  C11 UNL     1      18.160   8.798  19.087  0.00  0.00    +0.037 A 
ATOM      9  C18 UNL     1      17.143   9.705  19.431  0.00  0.00    +0.015 A 
ATOM     10  C19 UNL     1      17.409  11.075  19.513  0.00  0.00    +0.024 A 
BRANCH   8  11
ATOM     11  C12 UNL     1      17.869   7.344  19.020  0.00  0.00    +0.244 C 
ATOM     12  O4  UNL     1      18.702   6.572  18.472  0.00  0.00    -0.270 OA
ATOM     13  N4  UNL     1      16.662   6.802  19.578  0.00  0.00    -0.308 N 
ATOM     14  H11 UNL     1      16.141   7.362  20.289  0.00  0.00    +0.149 HD
BRANCH  13  15
ATOM     15  C13 UNL     1      16.278   5.400  19.382  0.00  0.00    +0.073 C 
ATOM     16  C14 UNL     1      14.782   5.194  19.570  0.00  0.00    +0.022 C 
ATOM     17  C15 UNL     1      14.632   3.740  19.996  0.00  0.00    +0.002 C 
ATOM     18  C16 UNL     1      15.976   3.319  20.591  0.00  0.00    +0.002 C 
ATOM     19  C17 UNL     1      16.931   4.496  20.415  0.00  0.00    +0.022 C 
ENDBRANCH  13  15
ENDBRANCH   8  11
ENDBRANCH   3   5
BRANCH   1  20
ATOM     20  C6  UNL     1      20.119  14.975  20.454  0.00  0.00    +0.214 C 
BRANCH  20  26
ATOM     21  N1  UNL     1      22.786  15.954  22.945  0.00  0.00    -0.214 N 
ATOM     22  C4  UNL     1      23.562  15.521  21.832  0.00  0.00    +0.310 C 
ATOM     23  O1  UNL     1      24.819  15.569  21.774  0.00  0.00    -0.264 OA
ATOM     24  C5  UNL     1      22.674  15.019  20.799  0.00  0.00    +0.310 C 
ATOM     25  O2  UNL     1      23.017  14.612  19.657  0.00  0.00    -0.264 OA
ATOM     26  N2  UNL     1      21.328  15.081  21.266  0.00  0.00    -0.209 N 
ATOM     27  C20 UNL     1      21.435  15.669  22.567  0.00  0.00    +0.319 C 
ATOM     28  O5  UNL     1      20.440  15.922  23.298  0.00  0.00    -0.252 OA
BRANCH  21  29
ATOM     29  C3  UNL     1      23.276  16.323  24.270  0.00  0.00    +0.145 C 
BRANCH  29  31
ATOM     30  C1  UNL     1      23.392  14.890  26.288  0.00  0.00    +0.005 C 
ATOM     31  C2  UNL     1      23.741  15.107  25.018  0.00  0.00    -0.015 C 
ENDBRANCH  29  31
ENDBRANCH  21  29
ENDBRANCH  20  26
ENDBRANCH   1  20
TORSDOF 7
ENDMDL
MODEL 3
REMARK VINA RESULT:    -6.398      1.186      2.003
REMARK INTER + INTRA:          -9.885
REMARK INTER:                  -8.880
REMARK INTRA:                  -1.005
REMARK UNBOUND:                -0.870
REMARK  Name = /home/qwerty/github/datacon2025hack/step_04_hit_selection/docking/ligands/lig_476.pdb
REMARK  7 active torsions:
REMARK  status: ('A' for Active; 'I' for Inactive)
REMARK    1  A    between atoms: C2_2  and  C3_3
REMARK    2  A    between atoms: C3_3  and  N1_4
REMARK    3  A    between atoms: N2_9  and  C6_10
REMARK    4  A    between atoms: C6_10  and  C7_11
REMARK    5  A    between atoms: N3_13  and  C8_14
REMARK    6  A    between atoms: C11_17  and  C12_18
REMARK    7  A    between atoms: N4_20  and  C13_21
REMARK                            x       y       z     vdW  Elec       q    Type
REMARK                         _______ _______ _______ _____ _____    ______ ____
ROOT
ATOM      1  C7  UNL     1      16.626  13.568  35.591  0.00  0.00    +0.235 C 
ATOM      2  O3  UNL     1      16.799  13.285  34.373  0.00  0.00    -0.274 OA
ATOM      3  N3  UNL     1      17.526  13.066  36.593  0.00  0.00    -0.284 N 
ATOM      4  H8  UNL     1      17.532  13.543  37.523  0.00  0.00    +0.155 HD
ENDROOT
BRANCH   3   5
ATOM      5  C8  UNL     1      18.488  12.021  36.365  0.00  0.00    +0.033 A 
ATOM      6  C9  UNL     1      19.751  12.351  35.856  0.00  0.00    +0.024 A 
ATOM      7  C10 UNL     1      20.718  11.361  35.652  0.00  0.00    +0.015 A 
ATOM      8  C11 UNL     1      20.440  10.018  35.963  0.00  0.00    +0.037 A 
ATOM      9  C18 UNL     1      19.186   9.695  36.508  0.00  0.00    +0.015 A 
ATOM     10  C19 UNL     1      18.221  10.686  36.711  0.00  0.00    +0.024 A 
BRANCH   8  11
ATOM     11  C12 UNL     1      21.462   8.959  35.769  0.00  0.00    +0.244 C 
ATOM     12  O4  UNL     1      21.764   8.206  36.735  0.00  0.00    -0.270 OA
ATOM     13  N4  UNL     1      22.103   8.770  34.497  0.00  0.00    -0.308 N 
ATOM     14  H11 UNL     1      21.646   9.157  33.642  0.00  0.00    +0.149 HD
BRANCH  13  15
ATOM     15  C13 UNL     1      23.225   7.843  34.325  0.00  0.00    +0.073 C 
ATOM     16  C14 UNL     1      24.233   8.359  33.308  0.00  0.00    +0.022 C 
ATOM     17  C15 UNL     1      24.911   7.114  32.753  0.00  0.00    +0.002 C 
ATOM     18  C16 UNL     1      23.948   5.951  32.989  0.00  0.00    +0.002 C 
ATOM     19  C17 UNL     1      22.760   6.505  33.771  0.00  0.00    +0.022 C 
ENDBRANCH  13  15
ENDBRANCH   8  11
ENDBRANCH   3   5
BRANCH   1  20
ATOM     20  C6  UNL     1      15.462  14.429  35.989  0.00  0.00    +0.214 C 
BRANCH  20  26
ATOM     21  N1  UNL     1      12.789  11.759  35.995  0.00  0.00    -0.214 N 
ATOM     22  C4  UNL     1      12.299  12.669  35.016  0.00  0.00    +0.310 C 
ATOM     23  O1  UNL     1      11.259  12.489  34.328  0.00  0.00    -0.264 OA
ATOM     24  C5  UNL     1      13.181  13.820  34.951  0.00  0.00    +0.310 C 
ATOM     25  O2  UNL     1      13.081  14.789  34.152  0.00  0.00    -0.264 OA
ATOM     26  N2  UNL     1      14.213  13.676  35.925  0.00  0.00    -0.209 N 
ATOM     27  C20 UNL     1      13.950  12.405  36.529  0.00  0.00    +0.319 C 
ATOM     28  O5  UNL     1      14.675  11.899  37.427  0.00  0.00    -0.252 OA
BRANCH  21  29
ATOM     29  C3  UNL     1      12.101  10.588  36.532  0.00  0.00    +0.145 C 
BRANCH  29  31
ATOM     30  C1  UNL     1      10.353  11.710  37.882  0.00  0.00    +0.005 C 
ATOM     31  C2  UNL     1      11.428  10.921  37.832  0.00  0.00    -0.015 C 
ENDBRANCH  29  31
ENDBRANCH  21  29
ENDBRANCH  20  26
ENDBRANCH   1  20
TORSDOF 7
ENDMDL
MODEL 4
REMARK VINA RESULT:    -6.267      7.671     11.979
REMARK INTER + INTRA:          -9.701
REMARK INTER:                  -8.785
REMARK INTRA:                  -0.916
REMARK UNBOUND:                -0.870
REMARK  Name = /home/qwerty/github/datacon2025hack/step_04_hit_selection/docking/ligands/lig_476.pdb
REMARK  7 active torsions:
REMARK  status: ('A' for Active; 'I' for Inactive)
REMARK    1  A    between atoms: C2_2  and  C3_3
REMARK    2  A    between atoms: C3_3  and  N1_4
REMARK    3  A    between atoms: N2_9  and  C6_10
REMARK    4  A    between atoms: C6_10  and  C7_11
REMARK    5  A    between atoms: N3_13  and  C8_14
REMARK    6  A    between atoms: C11_17  and  C12_18
REMARK    7  A    between atoms: N4_20  and  C13_21
REMARK                            x       y       z     vdW  Elec       q    Type
REMARK                         _______ _______ _______ _____ _____    ______ ____
ROOT
ATOM      1  C7  UNL     1      11.071  13.447  31.349  0.00  0.00    +0.235 C 
ATOM      2  O3  UNL     1      11.406  12.244  31.530  0.00  0.00    -0.274 OA
ATOM      3  N3  UNL     1      10.045  13.785  30.402  0.00  0.00    -0.284 N 
ATOM      4  H8  UNL     1       9.595  14.725  30.486  0.00  0.00    +0.155 HD
ENDROOT
BRANCH   3   5
ATOM      5  C8  UNL     1       9.526  12.877  29.413  0.00  0.00    +0.033 A 
ATOM      6  C9  UNL     1      10.239  12.677  28.223  0.00  0.00    +0.024 A 
ATOM      7  C10 UNL     1       9.775  11.780  27.257  0.00  0.00    +0.015 A 
ATOM      8  C11 UNL     1       8.588  11.055  27.467  0.00  0.00    +0.037 A 
ATOM      9  C18 UNL     1       7.894  11.230  28.676  0.00  0.00    +0.015 A 
ATOM     10  C19 UNL     1       8.359  12.128  29.641  0.00  0.00    +0.024 A 
BRANCH   8  11
ATOM     11  C12 UNL     1       8.093  10.086  26.458  0.00  0.00    +0.244 C 
ATOM     12  O4  UNL     1       7.316   9.160  26.820  0.00  0.00    -0.270 OA
ATOM     13  N4  UNL     1       8.473  10.192  25.077  0.00  0.00    -0.308 N 
ATOM     14  H11 UNL     1       8.838  11.104  24.725  0.00  0.00    +0.149 HD
BRANCH  13  15
ATOM     15  C13 UNL     1       8.129   9.158  24.097  0.00  0.00    +0.073 C 
ATOM     16  C14 UNL     1       9.268   8.169  23.897  0.00  0.00    +0.022 C 
ATOM     17  C15 UNL     1       9.077   7.622  22.489  0.00  0.00    +0.002 C 
ATOM     18  C16 UNL     1       8.255   8.660  21.725  0.00  0.00    +0.002 C 
ATOM     19  C17 UNL     1       7.884   9.756  22.720  0.00  0.00    +0.022 C 
ENDBRANCH  13  15
ENDBRANCH   8  11
ENDBRANCH   3   5
BRANCH   1  20
ATOM     20  C6  UNL     1      11.760  14.529  32.129  0.00  0.00    +0.214 C 
BRANCH  20  26
ATOM     21  N1  UNL     1      11.922  13.119  35.631  0.00  0.00    -0.214 N 
ATOM     22  C4  UNL     1      10.668  13.794  35.639  0.00  0.00    +0.310 C 
ATOM     23  O1  UNL     1       9.859  13.791  36.605  0.00  0.00    -0.264 OA
ATOM     24  C5  UNL     1      10.487  14.478  34.372  0.00  0.00    +0.310 C 
ATOM     25  O2  UNL     1       9.465  15.122  34.014  0.00  0.00    -0.264 OA
ATOM     26  N2  UNL     1      11.647  14.286  33.565  0.00  0.00    -0.209 N 
ATOM     27  C20 UNL     1      12.490  13.444  34.358  0.00  0.00    +0.319 C 
ATOM     28  O5  UNL     1      13.611  13.019  33.968  0.00  0.00    -0.252 OA
BRANCH  21  29
ATOM     29  C3  UNL     1      12.594  12.495  36.767  0.00  0.00    +0.145 C 
BRANCH  29  31
ATOM     30  C1  UNL     1      11.139  10.709  37.679  0.00  0.00    +0.005 C 
ATOM     31  C2  UNL     1      12.170  11.062  36.909  0.00  0.00    -0.015 C 
ENDBRANCH  29  31
ENDBRANCH  21  29
ENDBRANCH  20  26
ENDBRANCH   1  20
TORSDOF 7
ENDMDL
MODEL 5
REMARK VINA RESULT:    -6.175      5.851      9.352
REMARK INTER + INTRA:          -9.572
REMARK INTER:                  -8.447
REMARK INTRA:                  -1.124
REMARK UNBOUND:                -0.870
REMARK  Name = /home/qwerty/github/datacon2025hack/step_04_hit_selection/docking/ligands/lig_476.pdb
REMARK  7 active torsions:
REMARK  status: ('A' for Active; 'I' for Inactive)
REMARK    1  A    between atoms: C2_2  and  C3_3
REMARK    2  A    between atoms: C3_3  and  N1_4
REMARK    3  A    between atoms: N2_9  and  C6_10
REMARK    4  A    between atoms: C6_10  and  C7_11
REMARK    5  A    between atoms: N3_13  and  C8_14
REMARK    6  A    between atoms: C11_17  and  C12_18
REMARK    7  A    between atoms: N4_20  and  C13_21
REMARK                            x       y       z     vdW  Elec       q    Type
REMARK                         _______ _______ _______ _____ _____    ______ ____
ROOT
ATOM      1  C7  UNL     1      11.000  13.831  29.243  0.00  0.00    +0.235 C 
ATOM      2  O3  UNL     1      12.225  13.602  29.043  0.00  0.00    -0.274 OA
ATOM      3  N3  UNL     1      10.510  14.075  30.572  0.00  0.00    -0.284 N 
ATOM      4  H8  UNL     1       9.579  14.539  30.670  0.00  0.00    +0.155 HD
ENDROOT
BRANCH   3   5
ATOM      5  C8  UNL     1      11.262  13.816  31.772  0.00  0.00    +0.033 A 
ATOM      6  C9  UNL     1      11.338  12.507  32.265  0.00  0.00    +0.024 A 
ATOM      7  C10 UNL     1      12.085  12.220  33.411  0.00  0.00    +0.015 A 
ATOM      8  C11 UNL     1      12.780  13.241  34.084  0.00  0.00    +0.037 A 
ATOM      9  C18 UNL     1      12.731  14.547  33.568  0.00  0.00    +0.015 A 
ATOM     10  C19 UNL     1      11.984  14.832  32.421  0.00  0.00    +0.024 A 
BRANCH   8  11
ATOM     11  C12 UNL     1      13.591  12.948  35.293  0.00  0.00    +0.244 C 
ATOM     12  O4  UNL     1      13.257  13.455  36.398  0.00  0.00    -0.270 OA
ATOM     13  N4  UNL     1      14.740  12.089  35.227  0.00  0.00    -0.308 N 
ATOM     14  H11 UNL     1      14.831  11.433  34.419  0.00  0.00    +0.149 HD
BRANCH  13  15
ATOM     15  C13 UNL     1      15.645  11.916  36.366  0.00  0.00    +0.073 C 
ATOM     16  C14 UNL     1      17.101  11.855  35.926  0.00  0.00    +0.022 C 
ATOM     17  C15 UNL     1      17.809  11.048  37.006  0.00  0.00    +0.002 C 
ATOM     18  C16 UNL     1      16.737  10.202  37.692  0.00  0.00    +0.002 C 
ATOM     19  C17 UNL     1      15.396  10.596  37.078  0.00  0.00    +0.022 C 
ENDBRANCH  13  15
ENDBRANCH   8  11
ENDBRANCH   3   5
BRANCH   1  20
ATOM     20  C6  UNL     1      10.052  13.838  28.079  0.00  0.00    +0.214 C 
BRANCH  20  26
ATOM     21  N1  UNL     1       8.154  10.617  28.621  0.00  0.00    -0.214 N 
ATOM     22  C4  UNL     1       9.129  10.229  27.659  0.00  0.00    +0.310 C 
ATOM     23  O1  UNL     1       9.280   9.057  27.223  0.00  0.00    -0.264 OA
ATOM     24  C5  UNL     1       9.901  11.395  27.268  0.00  0.00    +0.310 C 
ATOM     25  O2  UNL     1      10.885  11.405  26.481  0.00  0.00    -0.264 OA
ATOM     26  N2  UNL     1       9.391  12.544  27.941  0.00  0.00    -0.209 N 
ATOM     27  C20 UNL     1       8.339  12.029  28.765  0.00  0.00    +0.319 C 
ATOM     28  O5  UNL     1       7.658  12.743  29.548  0.00  0.00    -0.252 OA
BRANCH  21  29
ATOM     29  C3  UNL     1       7.038   9.815  29.116  0.00  0.00    +0.145 C 
BRANCH  29  31
ATOM     30  C1  UNL     1       7.062   7.742  30.472  0.00  0.00    +0.005 C 
ATOM     31  C2  UNL     1       7.456   9.006  30.310  0.00  0.00    -0.015 C 
ENDBRANCH  29  31
ENDBRANCH  21  29
ENDBRANCH  20  26
ENDBRANCH   1  20
TORSDOF 7
ENDMDL
MODEL 6
REMARK VINA RESULT:    -6.157     11.922     14.706
REMARK INTER + INTRA:          -9.546
REMARK INTER:                  -8.802
REMARK INTRA:                  -0.744
REMARK UNBOUND:                -0.870
REMARK  Name = /home/qwerty/github/datacon2025hack/step_04_hit_selection/docking/ligands/lig_476.pdb
REMARK  7 active torsions:
REMARK  status: ('A' for Active; 'I' for Inactive)
REMARK    1  A    between atoms: C2_2  and  C3_3
REMARK    2  A    between atoms: C3_3  and  N1_4
REMARK    3  A    between atoms: N2_9  and  C6_10
REMARK    4  A    between atoms: C6_10  and  C7_11
REMARK    5  A    between atoms: N3_13  and  C8_14
REMARK    6  A    between atoms: C11_17  and  C12_18
REMARK    7  A    between atoms: N4_20  and  C13_21
REMARK                            x       y       z     vdW  Elec       q    Type
REMARK                         _______ _______ _______ _____ _____    ______ ____
ROOT
ATOM      1  C7  UNL     1      20.613   4.631  22.900  0.00  0.00    +0.235 C 
ATOM      2  O3  UNL     1      20.176   5.394  23.806  0.00  0.00    -0.274 OA
ATOM      3  N3  UNL     1      21.055   3.301  23.215  0.00  0.00    -0.284 N 
ATOM      4  H8  UNL     1      21.129   2.614  22.431  0.00  0.00    +0.155 HD
ENDROOT
BRANCH   3   5
ATOM      5  C8  UNL     1      21.302   2.825  24.551  0.00  0.00    +0.033 A 
ATOM      6  C9  UNL     1      22.352   3.381  25.294  0.00  0.00    +0.024 A 
ATOM      7  C10 UNL     1      22.599   2.960  26.604  0.00  0.00    +0.015 A 
ATOM      8  C11 UNL     1      21.789   1.978  27.202  0.00  0.00    +0.037 A 
ATOM      9  C18 UNL     1      20.714   1.448  26.469  0.00  0.00    +0.015 A 
ATOM     10  C19 UNL     1      20.469   1.870  25.158  0.00  0.00    +0.024 A 
BRANCH   8  11
ATOM     11  C12 UNL     1      22.027   1.534  28.598  0.00  0.00    +0.244 C 
ATOM     12  O4  UNL     1      22.931   0.685  28.831  0.00  0.00    -0.270 OA
ATOM     13  N4  UNL     1      21.256   2.063  29.688  0.00  0.00    -0.308 N 
ATOM     14  H11 UNL     1      20.749   2.965  29.553  0.00  0.00    +0.149 HD
BRANCH  13  15
ATOM     15  C13 UNL     1      21.362   1.523  31.047  0.00  0.00    +0.073 C 
ATOM     16  C14 UNL     1      20.362   0.402  31.288  0.00  0.00    +0.022 C 
ATOM     17  C15 UNL     1      20.113   0.408  32.790  0.00  0.00    +0.002 C 
ATOM     18  C16 UNL     1      20.474   1.808  33.287  0.00  0.00    +0.002 C 
ATOM     19  C17 UNL     1      21.028   2.577  32.091  0.00  0.00    +0.022 C 
ENDBRANCH  13  15
ENDBRANCH   8  11
ENDBRANCH   3   5
BRANCH   1  20
ATOM     20  C6  UNL     1      20.676   5.129  21.485  0.00  0.00    +0.214 C 
BRANCH  20  26
ATOM     21  N1  UNL     1      20.496   8.855  20.889  0.00  0.00    -0.214 N 
ATOM     22  C4  UNL     1      21.901   8.624  20.907  0.00  0.00    +0.310 C 
ATOM     23  O1  UNL     1      22.775   9.505  20.690  0.00  0.00    -0.264 OA
ATOM     24  C5  UNL     1      22.150   7.228  21.219  0.00  0.00    +0.310 C 
ATOM     25  O2  UNL     1      23.276   6.665  21.258  0.00  0.00    -0.264 OA
ATOM     26  N2  UNL     1      20.906   6.570  21.452  0.00  0.00    -0.209 N 
ATOM     27  C20 UNL     1      19.924   7.587  21.228  0.00  0.00    +0.319 C 
ATOM     28  O5  UNL     1      18.683   7.383  21.305  0.00  0.00    -0.252 OA
BRANCH  21  29
ATOM     29  C3  UNL     1      19.817  10.147  20.832  0.00  0.00    +0.145 C 
BRANCH  29  31
ATOM     30  C1  UNL     1      19.101  11.772  19.106  0.00  0.00    +0.005 C 
ATOM     31  C2  UNL     1      19.701  10.621  19.412  0.00  0.00    -0.015 C 
ENDBRANCH  29  31
ENDBRANCH  21  29
ENDBRANCH  20  26
ENDBRANCH   1  20
TORSDOF 7
ENDMDL
MODEL 7
REMARK VINA RESULT:    -6.073     10.258     14.170
REMARK INTER + INTRA:          -9.428
REMARK INTER:                  -8.572
REMARK INTRA:                  -0.857
REMARK UNBOUND:                -0.870
REMARK  Name = /home/qwerty/github/datacon2025hack/step_04_hit_selection/docking/ligands/lig_476.pdb
REMARK  7 active torsions:
REMARK  status: ('A' for Active; 'I' for Inactive)
REMARK    1  A    between atoms: C2_2  and  C3_3
REMARK    2  A    between atoms: C3_3  and  N1_4
REMARK    3  A    between atoms: N2_9  and  C6_10
REMARK    4  A    between atoms: C6_10  and  C7_11
REMARK    5  A    between atoms: N3_13  and  C8_14
REMARK    6  A    between atoms: C11_17  and  C12_18
REMARK    7  A    between atoms: N4_20  and  C13_21
REMARK                            x       y       z     vdW  Elec       q    Type
REMARK                         _______ _______ _______ _____ _____    ______ ____
ROOT
ATOM      1  C7  UNL     1       8.464  10.269  26.018  0.00  0.00    +0.235 C 
ATOM      2  O3  UNL     1       9.701  10.226  25.773  0.00  0.00    -0.274 OA
ATOM      3  N3  UNL     1       7.947  11.164  27.016  0.00  0.00    -0.284 N 
ATOM      4  H8  UNL     1       6.926  11.386  26.989  0.00  0.00    +0.155 HD
ENDROOT
BRANCH   3   5
ATOM      5  C8  UNL     1       8.760  11.854  27.983  0.00  0.00    +0.033 A 
ATOM      6  C9  UNL     1       9.178  11.177  29.136  0.00  0.00    +0.024 A 
ATOM      7  C10 UNL     1       9.992  11.812  30.079  0.00  0.00    +0.015 A 
ATOM      8  C11 UNL     1      10.413  13.139  29.880  0.00  0.00    +0.037 A 
ATOM      9  C18 UNL     1      10.022  13.804  28.706  0.00  0.00    +0.015 A 
ATOM     10  C19 UNL     1       9.208  13.168  27.764  0.00  0.00    +0.024 A 
BRANCH   8  11
ATOM     11  C12 UNL     1      11.292  13.819  30.864  0.00  0.00    +0.244 C 
ATOM     12  O4  UNL     1      12.148  14.651  30.456  0.00  0.00    -0.270 OA
ATOM     13  N4  UNL     1      11.175  13.556  32.271  0.00  0.00    -0.308 N 
ATOM     14  H11 UNL     1      10.292  13.133  32.632  0.00  0.00    +0.149 HD
BRANCH  13  15
ATOM     15  C13 UNL     1      12.135  14.091  33.242  0.00  0.00    +0.073 C 
ATOM     16  C14 UNL     1      13.394  13.239  33.319  0.00  0.00    +0.022 C 
ATOM     17  C15 UNL     1      13.944  13.470  34.719  0.00  0.00    +0.002 C 
ATOM     18  C16 UNL     1      12.770  13.938  35.578  0.00  0.00    +0.002 C 
ATOM     19  C17 UNL     1      11.566  14.077  34.652  0.00  0.00    +0.022 C 
ENDBRANCH  13  15
ENDBRANCH   8  11
ENDBRANCH   3   5
BRANCH   1  20
ATOM     20  C6  UNL     1       7.532   9.368  25.261  0.00  0.00    +0.214 C 
BRANCH  20  26
ATOM     21  N1  UNL     1       9.037   9.114  21.805  0.00  0.00    -0.214 N 
ATOM     22  C4  UNL     1       8.297  10.328  21.719  0.00  0.00    +0.310 C 
ATOM     23  O1  UNL     1       8.282  11.089  20.715  0.00  0.00    -0.264 OA
ATOM     24  C5  UNL     1       7.572  10.533  22.960  0.00  0.00    +0.310 C 
ATOM     25  O2  UNL     1       6.866  11.534  23.252  0.00  0.00    -0.264 OA
ATOM     26  N2  UNL     1       7.805   9.425  23.828  0.00  0.00    -0.209 N 
ATOM     27  C20 UNL     1       8.711   8.591  23.097  0.00  0.00    +0.319 C 
ATOM     28  O5  UNL     1       9.184   7.516  23.551  0.00  0.00    -0.252 OA
BRANCH  21  29
ATOM     29  C3  UNL     1       9.725   8.423  20.717  0.00  0.00    +0.145 C 
BRANCH  29  31
ATOM     30  C1  UNL     1      11.321   9.874  19.499  0.00  0.00    +0.005 C 
ATOM     31  C2  UNL     1      11.086   9.016  20.493  0.00  0.00    -0.015 C 
ENDBRANCH  29  31
ENDBRANCH  21  29
ENDBRANCH  20  26
ENDBRANCH   1  20
TORSDOF 7
ENDMDL
MODEL 8
REMARK VINA RESULT:    -5.995     11.287     13.816
REMARK INTER + INTRA:          -9.318
REMARK INTER:                  -8.283
REMARK INTRA:                  -1.035
REMARK UNBOUND:                -0.870
REMARK  Name = /home/qwerty/github/datacon2025hack/step_04_hit_selection/docking/ligands/lig_476.pdb
REMARK  7 active torsions:
REMARK  status: ('A' for Active; 'I' for Inactive)
REMARK    1  A    between atoms: C2_2  and  C3_3
REMARK    2  A    between atoms: C3_3  and  N1_4
REMARK    3  A    between atoms: N2_9  and  C6_10
REMARK    4  A    between atoms: C6_10  and  C7_11
REMARK    5  A    between atoms: N3_13  and  C8_14
REMARK    6  A    between atoms: C11_17  and  C12_18
REMARK    7  A    between atoms: N4_20  and  C13_21
REMARK                            x       y       z     vdW  Elec       q    Type
REMARK                         _______ _______ _______ _____ _____    ______ ____
ROOT
ATOM      1  C7  UNL     1       8.129  10.561  28.087  0.00  0.00    +0.235 C 
ATOM      2  O3  UNL     1       8.361   9.338  28.293  0.00  0.00    -0.274 OA
ATOM      3  N3  UNL     1       8.034  11.071  26.747  0.00  0.00    -0.284 N 
ATOM      4  H8  UNL     1       7.563  11.994  26.609  0.00  0.00    +0.155 HD
ENDROOT
BRANCH   3   5
ATOM      5  C8  UNL     1       8.450  10.347  25.574  0.00  0.00    +0.033 A 
ATOM      6  C9  UNL     1       9.817  10.137  25.348  0.00  0.00    +0.024 A 
ATOM      7  C10 UNL     1      10.251   9.413  24.233  0.00  0.00    +0.015 A 
ATOM      8  C11 UNL     1       9.321   8.875  23.325  0.00  0.00    +0.037 A 
ATOM      9  C18 UNL     1       7.949   9.057  23.574  0.00  0.00    +0.015 A 
ATOM     10  C19 UNL     1       7.518   9.781  24.688  0.00  0.00    +0.024 A 
BRANCH   8  11
ATOM     11  C12 UNL     1       9.765   8.089  22.147  0.00  0.00    +0.244 C 
ATOM     12  O4  UNL     1       9.586   8.557  20.989  0.00  0.00    -0.270 OA
ATOM     13  N4  UNL     1      10.407   6.814  22.304  0.00  0.00    -0.308 N 
ATOM     14  H11 UNL     1      10.835   6.576  23.226  0.00  0.00    +0.149 HD
BRANCH  13  15
ATOM     15  C13 UNL     1      10.707   5.951  21.157  0.00  0.00    +0.073 C 
ATOM     16  C14 UNL     1      10.752   4.482  21.553  0.00  0.00    +0.022 C 
ATOM     17  C15 UNL     1      11.673   3.824  20.536  0.00  0.00    +0.002 C 
ATOM     18  C16 UNL     1      12.562   4.932  19.971  0.00  0.00    +0.002 C 
ATOM     19  C17 UNL     1      12.085   6.245  20.586  0.00  0.00    +0.022 C 
ENDBRANCH  13  15
ENDBRANCH   8  11
ENDBRANCH   3   5
BRANCH   1  20
ATOM     20  C6  UNL     1       7.962  11.487  29.257  0.00  0.00    +0.214 C 
BRANCH  20  26
ATOM     21  N1  UNL     1      10.985  13.721  28.873  0.00  0.00    -0.214 N 
ATOM     22  C4  UNL     1      11.415  12.807  29.877  0.00  0.00    +0.310 C 
ATOM     23  O1  UNL     1      12.568  12.792  30.385  0.00  0.00    -0.264 OA
ATOM     24  C5  UNL     1      10.319  11.916  30.212  0.00  0.00    +0.310 C 
ATOM     25  O2  UNL     1      10.367  10.948  31.016  0.00  0.00    -0.264 OA
ATOM     26  N2  UNL     1       9.165  12.288  29.460  0.00  0.00    -0.209 N 
ATOM     27  C20 UNL     1       9.613  13.379  28.648  0.00  0.00    +0.319 C 
ATOM     28  O5  UNL     1       8.879  13.967  27.810  0.00  0.00    -0.252 OA
BRANCH  21  29
ATOM     29  C3  UNL     1      11.689  14.912  28.406  0.00  0.00    +0.145 C 
BRANCH  29  31
ATOM     30  C1  UNL     1      13.646  14.874  26.887  0.00  0.00    +0.005 C 
ATOM     31  C2  UNL     1      12.344  14.652  27.081  0.00  0.00    -0.015 C 
ENDBRANCH  29  31
ENDBRANCH  21  29
ENDBRANCH  20  26
ENDBRANCH   1  20
TORSDOF 7
ENDMDL
MODEL 9
REMARK VINA RESULT:    -5.940      3.268     10.329
REMARK INTER + INTRA:          -9.240
REMARK INTER:                  -8.295
REMARK INTRA:                  -0.945
REMARK UNBOUND:                -0.870
REMARK  Name = /home/qwerty/github/datacon2025hack/step_04_hit_selection/docking/ligands/lig_476.pdb
REMARK  7 active torsions:
REMARK  status: ('A' for Active; 'I' for Inactive)
REMARK    1  A    between atoms: C2_2  and  C3_3
REMARK    2  A    between atoms: C3_3  and  N1_4
REMARK    3  A    between atoms: N2_9  and  C6_10
REMARK    4  A    between atoms: C6_10  and  C7_11
REMARK    5  A    between atoms: N3_13  and  C8_14
REMARK    6  A    between atoms: C11_17  and  C12_18
REMARK    7  A    between atoms: N4_20  and  C13_21
REMARK                            x       y       z     vdW  Elec       q    Type
REMARK                         _______ _______ _______ _____ _____    ______ ____
ROOT
ATOM      1  C7  UNL     1      17.455  12.192  36.334  0.00  0.00    +0.235 C 
ATOM      2  O3  UNL     1      16.613  11.260  36.465  0.00  0.00    -0.274 OA
ATOM      3  N3  UNL     1      17.083  13.430  35.707  0.00  0.00    -0.284 N 
ATOM      4  H8  UNL     1      17.692  14.262  35.874  0.00  0.00    +0.155 HD
ENDROOT
BRANCH   3   5
ATOM      5  C8  UNL     1      15.874  13.622  34.950  0.00  0.00    +0.033 A 
ATOM      6  C9  UNL     1      15.815  13.172  33.625  0.00  0.00    +0.024 A 
ATOM      7  C10 UNL     1      14.644  13.318  32.874  0.00  0.00    +0.015 A 
ATOM      8  C11 UNL     1      13.502  13.912  33.441  0.00  0.00    +0.037 A 
ATOM      9  C18 UNL     1      13.552  14.331  34.782  0.00  0.00    +0.015 A 
ATOM     10  C19 UNL     1      14.723  14.183  35.530  0.00  0.00    +0.024 A 
BRANCH   8  11
ATOM     11  C12 UNL     1      12.248  14.059  32.662  0.00  0.00    +0.244 C 
ATOM     12  O4  UNL     1      11.181  14.366  33.261  0.00  0.00    -0.270 OA
ATOM     13  N4  UNL     1      12.230  13.869  31.239  0.00  0.00    -0.308 N 
ATOM     14  H11 UNL     1      13.129  13.931  30.712  0.00  0.00    +0.149 HD
BRANCH  13  15
ATOM     15  C13 UNL     1      10.979  13.848  30.474  0.00  0.00    +0.073 C 
ATOM     16  C14 UNL     1      10.385  12.449  30.403  0.00  0.00    +0.022 C 
ATOM     17  C15 UNL     1       9.558  12.434  29.124  0.00  0.00    +0.002 C 
ATOM     18  C16 UNL     1      10.123  13.534  28.226  0.00  0.00    +0.002 C 
ATOM     19  C17 UNL     1      11.207  14.252  29.026  0.00  0.00    +0.022 C 
ENDBRANCH  13  15
ENDBRANCH   8  11
ENDBRANCH   3   5
BRANCH   1  20
ATOM     20  C6  UNL     1      18.856  11.994  36.834  0.00  0.00    +0.214 C 
BRANCH  20  26
ATOM     21  N1  UNL     1      20.542   8.675  36.186  0.00  0.00    -0.214 N 
ATOM     22  C4  UNL     1      20.995   9.459  35.087  0.00  0.00    +0.310 C 
ATOM     23  O1  UNL     1      21.816   9.065  34.216  0.00  0.00    -0.264 OA
ATOM     24  C5  UNL     1      20.359  10.763  35.137  0.00  0.00    +0.310 C 
ATOM     25  O2  UNL     1      20.576  11.726  34.356  0.00  0.00    -0.264 OA
ATOM     26  N2  UNL     1      19.456  10.802  36.240  0.00  0.00    -0.209 N 
ATOM     27  C20 UNL     1      19.605   9.521  36.862  0.00  0.00    +0.319 C 
ATOM     28  O5  UNL     1      18.988   9.179  37.906  0.00  0.00    -0.252 OA
BRANCH  21  29
ATOM     29  C3  UNL     1      20.757   7.246  36.396  0.00  0.00    +0.145 C 
BRANCH  29  31
ATOM     30  C1  UNL     1      23.131   6.639  36.758  0.00  0.00    +0.005 C 
ATOM     31  C2  UNL     1      21.957   7.015  37.268  0.00  0.00    -0.015 C 
ENDBRANCH  29  31
ENDBRANCH  21  29
ENDBRANCH  20  26
ENDBRANCH   1  20
TORSDOF 7
ENDMDL
