MODEL 1
REMARK VINA RESULT:    -6.447      0.000      0.000
REMARK INTER + INTRA:          -9.087
REMARK INTER:                  -8.143
REMARK INTRA:                  -0.943
REMARK UNBOUND:                -0.943
REMARK  Name = /home/qwerty/github/datacon2025hack/step_04_hit_selection/docking/ligands/lig_533.pdb
REMARK  7 active torsions:
REMARK  status: ('A' for Active; 'I' for Inactive)
REMARK    1  A    between atoms: C1_1  and  C2_2
REMARK    2  A    between atoms: C2_2  and  O1_3
REMARK    3  A    between atoms: C2_2  and  C3_4
REMARK    4  A    between atoms: C3_4  and  N1_5
REMARK    5  A    between atoms: N1_5  and  C4_6
REMARK    6  A    between atoms: N2_9  and  C6_10
REMARK    7  A    between atoms: C11_16  and  C12_17
REMARK                            x       y       z     vdW  Elec       q    Type
REMARK                         _______ _______ _______ _____ _____    ______ ____
ROOT
ATOM      1  C6  UNL     1      21.345   4.005  33.507  0.00  0.00    +0.045 A 
ATOM      2  C7  UNL     1      20.865   2.706  33.730  0.00  0.00    +0.027 A 
ATOM      3  C8  UNL     1      20.872   1.760  32.703  0.00  0.00    +0.040 A 
ATOM      4  C9  UNL     1      21.361   2.102  31.443  0.00  0.00    +0.124 A 
ATOM      5  F1  UNL     1      21.360   1.185  30.444  0.00  0.00    -0.205 F 
ATOM      6  C10 UNL     1      21.868   3.383  31.212  0.00  0.00    +0.050 A 
ATOM      7  C11 UNL     1      21.890   4.340  32.242  0.00  0.00    +0.031 A 
ENDROOT
BRANCH   7   8
ATOM      8  C12 UNL     1      22.530   5.646  31.978  0.00  0.00    +0.111 A 
ATOM      9  N3  UNL     1      23.550   6.133  32.728  0.00  0.00    -0.239 NA
ATOM     10  C13 UNL     1      23.924   7.369  32.308  0.00  0.00    +0.079 A 
ATOM     11  C14 UNL     1      24.954   8.119  32.878  0.00  0.00    +0.029 A 
ATOM     12  C15 UNL     1      25.238   9.389  32.348  0.00  0.00    +0.002 A 
ATOM     13  C16 UNL     1      24.493   9.893  31.262  0.00  0.00    +0.001 A 
ATOM     14  C17 UNL     1      23.456   9.131  30.699  0.00  0.00    +0.017 A 
ATOM     15  C18 UNL     1      23.197   7.875  31.243  0.00  0.00    +0.040 A 
ATOM     16  S1  UNL     1      22.035   6.756  30.790  0.00  0.00    -0.067 S 
ENDBRANCH   7   8
BRANCH   1  21
ATOM     17  N1  UNL     1      19.913   6.760  35.738  0.00  0.00    -0.286 N 
ATOM     18  C4  UNL     1      18.602   7.234  36.192  0.00  0.00    +0.133 C 
ATOM     19  C5  UNL     1      19.975   5.580  34.906  0.00  0.00    +0.306 C 
ATOM     20  O2  UNL     1      18.905   5.072  34.470  0.00  0.00    -0.252 OA
ATOM     21  N2  UNL     1      21.231   4.970  34.565  0.00  0.00    -0.269 N 
ATOM     22  H11 UNL     1      22.026   5.042  35.234  0.00  0.00    +0.156 HD
BRANCH  17  23
ATOM     23  C3  UNL     1      21.110   7.557  36.061  0.00  0.00    +0.140 C 
BRANCH  23  25
ATOM     24  C1  UNL     1      23.178   6.621  37.208  0.00  0.00    +0.039 C 
ATOM     25  C2  UNL     1      21.741   7.119  37.394  0.00  0.00    +0.129 C 
BRANCH  25  26
ATOM     26  O1  UNL     1      21.735   8.211  38.276  0.00  0.00    -0.391 OA
ATOM     27  H5  UNL     1      22.015   9.007  37.753  0.00  0.00    +0.210 HD
ENDBRANCH  25  26
ENDBRANCH  23  25
ENDBRANCH  17  23
ENDBRANCH   1  21
TORSDOF 5
ENDMDL
MODEL 2
REMARK VINA RESULT:    -6.193      4.282      5.621
REMARK INTER + INTRA:          -8.765
REMARK INTER:                  -7.196
REMARK INTRA:                  -1.569
REMARK UNBOUND:                -0.943
REMARK  Name = /home/qwerty/github/datacon2025hack/step_04_hit_selection/docking/ligands/lig_533.pdb
REMARK  7 active torsions:
REMARK  status: ('A' for Active; 'I' for Inactive)
REMARK    1  A    between atoms: C1_1  and  C2_2
REMARK    2  A    between atoms: C2_2  and  O1_3
REMARK    3  A    between atoms: C2_2  and  C3_4
REMARK    4  A    between atoms: C3_4  and  N1_5
REMARK    5  A    between atoms: N1_5  and  C4_6
REMARK    6  A    between atoms: N2_9  and  C6_10
REMARK    7  A    between atoms: C11_16  and  C12_17
REMARK                            x       y       z     vdW  Elec       q    Type
REMARK                         _______ _______ _______ _____ _____    ______ ____
ROOT
ATOM      1  C6  UNL     1      21.298   7.865  36.960  0.00  0.00    +0.045 A 
ATOM      2  C7  UNL     1      22.176   7.008  37.639  0.00  0.00    +0.027 A 
ATOM      3  C8  UNL     1      23.286   6.466  36.987  0.00  0.00    +0.040 A 
ATOM      4  C9  UNL     1      23.531   6.777  35.651  0.00  0.00    +0.124 A 
ATOM      5  F1  UNL     1      24.604   6.244  35.017  0.00  0.00    -0.205 F 
ATOM      6  C10 UNL     1      22.681   7.651  34.967  0.00  0.00    +0.050 A 
ATOM      7  C11 UNL     1      21.573   8.224  35.616  0.00  0.00    +0.031 A 
ENDROOT
BRANCH   7   8
ATOM      8  C12 UNL     1      20.765   9.222  34.883  0.00  0.00    +0.111 A 
ATOM      9  N3  UNL     1      20.902  10.559  35.064  0.00  0.00    -0.239 NA
ATOM     10  C13 UNL     1      20.011  11.252  34.309  0.00  0.00    +0.079 A 
ATOM     11  C14 UNL     1      19.918  12.644  34.276  0.00  0.00    +0.029 A 
ATOM     12  C15 UNL     1      18.947  13.237  33.451  0.00  0.00    +0.002 A 
ATOM     13  C16 UNL     1      18.084  12.437  32.675  0.00  0.00    +0.001 A 
ATOM     14  C17 UNL     1      18.184  11.037  32.719  0.00  0.00    +0.017 A 
ATOM     15  C18 UNL     1      19.156  10.476  33.544  0.00  0.00    +0.040 A 
ATOM     16  S1  UNL     1      19.504   8.857  33.804  0.00  0.00    -0.067 S 
ENDBRANCH   7   8
BRANCH   1  21
ATOM     17  N1  UNL     1      17.617   8.353  37.871  0.00  0.00    -0.286 N 
ATOM     18  C4  UNL     1      16.359   7.604  37.794  0.00  0.00    +0.133 C 
ATOM     19  C5  UNL     1      18.836   7.708  37.440  0.00  0.00    +0.306 C 
ATOM     20  O2  UNL     1      18.776   6.581  36.876  0.00  0.00    -0.252 OA
ATOM     21  N2  UNL     1      20.120   8.323  37.642  0.00  0.00    -0.269 N 
ATOM     22  H11 UNL     1      20.256   8.950  38.462  0.00  0.00    +0.156 HD
BRANCH  17  23
ATOM     23  C3  UNL     1      17.581   9.765  38.289  0.00  0.00    +0.140 C 
BRANCH  23  25
ATOM     24  C1  UNL     1      16.981  11.746  36.811  0.00  0.00    +0.039 C 
ATOM     25  C2  UNL     1      18.047  10.704  37.163  0.00  0.00    +0.129 C 
BRANCH  25  26
ATOM     26  O1  UNL     1      19.220  11.356  37.575  0.00  0.00    -0.391 OA
ATOM     27  H5  UNL     1      19.795  10.670  38.004  0.00  0.00    +0.210 HD
ENDBRANCH  25  26
ENDBRANCH  23  25
ENDBRANCH  17  23
ENDBRANCH   1  21
TORSDOF 5
ENDMDL
MODEL 3
REMARK VINA RESULT:    -6.168      3.651      6.282
REMARK INTER + INTRA:          -8.733
REMARK INTER:                  -7.619
REMARK INTRA:                  -1.114
REMARK UNBOUND:                -0.943
REMARK  Name = /home/qwerty/github/datacon2025hack/step_04_hit_selection/docking/ligands/lig_533.pdb
REMARK  7 active torsions:
REMARK  status: ('A' for Active; 'I' for Inactive)
REMARK    1  A    between atoms: C1_1  and  C2_2
REMARK    2  A    between atoms: C2_2  and  O1_3
REMARK    3  A    between atoms: C2_2  and  C3_4
REMARK    4  A    between atoms: C3_4  and  N1_5
REMARK    5  A    between atoms: N1_5  and  C4_6
REMARK    6  A    between atoms: N2_9  and  C6_10
REMARK    7  A    between atoms: C11_16  and  C12_17
REMARK                            x       y       z     vdW  Elec       q    Type
REMARK                         _______ _______ _______ _____ _____    ______ ____
ROOT
ATOM      1  C6  UNL     1      20.611   1.662  32.063  0.00  0.00    +0.045 A 
ATOM      2  C7  UNL     1      19.722   0.578  32.049  0.00  0.00    +0.027 A 
ATOM      3  C8  UNL     1      18.681   0.501  32.976  0.00  0.00    +0.040 A 
ATOM      4  C9  UNL     1      18.515   1.509  33.925  0.00  0.00    +0.124 A 
ATOM      5  F1  UNL     1      17.508   1.430  34.829  0.00  0.00    -0.205 F 
ATOM      6  C10 UNL     1      19.376   2.610  33.934  0.00  0.00    +0.050 A 
ATOM      7  C11 UNL     1      20.415   2.714  32.993  0.00  0.00    +0.031 A 
ENDROOT
BRANCH   7   8
ATOM      8  C12 UNL     1      21.233   3.946  32.978  0.00  0.00    +0.111 A 
ATOM      9  N3  UNL     1      22.588   3.930  32.919  0.00  0.00    -0.239 NA
ATOM     10  C13 UNL     1      23.097   5.188  32.968  0.00  0.00    +0.079 A 
ATOM     11  C14 UNL     1      24.458   5.492  32.916  0.00  0.00    +0.029 A 
ATOM     12  C15 UNL     1      24.853   6.839  32.979  0.00  0.00    +0.002 A 
ATOM     13  C16 UNL     1      23.889   7.861  33.094  0.00  0.00    +0.001 A 
ATOM     14  C17 UNL     1      22.522   7.544  33.150  0.00  0.00    +0.017 A 
ATOM     15  C18 UNL     1      22.159   6.201  33.084  0.00  0.00    +0.040 A 
ATOM     16  S1  UNL     1      20.626   5.525  33.132  0.00  0.00    -0.067 S 
ENDBRANCH   7   8
BRANCH   1  21
ATOM     17  N1  UNL     1      22.607   1.795  28.804  0.00  0.00    -0.286 N 
ATOM     18  C4  UNL     1      22.507   2.419  27.481  0.00  0.00    +0.133 C 
ATOM     19  C5  UNL     1      21.596   2.096  29.791  0.00  0.00    +0.306 C 
ATOM     20  O2  UNL     1      20.579   2.765  29.455  0.00  0.00    -0.252 OA
ATOM     21  N2  UNL     1      21.722   1.651  31.152  0.00  0.00    -0.269 N 
ATOM     22  H11 UNL     1      22.674   1.540  31.561  0.00  0.00    +0.156 HD
BRANCH  17  23
ATOM     23  C3  UNL     1      23.674   0.809  29.048  0.00  0.00    +0.140 C 
BRANCH  23  25
ATOM     24  C1  UNL     1      24.349  -1.638  28.877  0.00  0.00    +0.039 C 
ATOM     25  C2  UNL     1      23.218  -0.619  28.701  0.00  0.00    +0.129 C 
BRANCH  25  26
ATOM     26  O1  UNL     1      22.143  -0.965  29.535  0.00  0.00    -0.391 OA
ATOM     27  H5  UNL     1      22.353  -1.854  29.924  0.00  0.00    +0.210 HD
ENDBRANCH  25  26
ENDBRANCH  23  25
ENDBRANCH  17  23
ENDBRANCH   1  21
TORSDOF 5
ENDMDL
MODEL 4
REMARK VINA RESULT:    -6.154      3.526      5.634
REMARK INTER + INTRA:          -8.716
REMARK INTER:                  -7.232
REMARK INTRA:                  -1.485
REMARK UNBOUND:                -0.943
REMARK  Name = /home/qwerty/github/datacon2025hack/step_04_hit_selection/docking/ligands/lig_533.pdb
REMARK  7 active torsions:
REMARK  status: ('A' for Active; 'I' for Inactive)
REMARK    1  A    between atoms: C1_1  and  C2_2
REMARK    2  A    between atoms: C2_2  and  O1_3
REMARK    3  A    between atoms: C2_2  and  C3_4
REMARK    4  A    between atoms: C3_4  and  N1_5
REMARK    5  A    between atoms: N1_5  and  C4_6
REMARK    6  A    between atoms: N2_9  and  C6_10
REMARK    7  A    between atoms: C11_16  and  C12_17
REMARK                            x       y       z     vdW  Elec       q    Type
REMARK                         _______ _______ _______ _____ _____    ______ ____
ROOT
ATOM      1  C6  UNL     1      22.787   7.993  34.395  0.00  0.00    +0.045 A 
ATOM      2  C7  UNL     1      24.024   7.424  34.061  0.00  0.00    +0.027 A 
ATOM      3  C8  UNL     1      24.787   7.947  33.015  0.00  0.00    +0.040 A 
ATOM      4  C9  UNL     1      24.323   9.046  32.294  0.00  0.00    +0.124 A 
ATOM      5  F1  UNL     1      25.061   9.547  31.273  0.00  0.00    -0.205 F 
ATOM      6  C10 UNL     1      23.106   9.642  32.632  0.00  0.00    +0.050 A 
ATOM      7  C11 UNL     1      22.337   9.143  33.698  0.00  0.00    +0.031 A 
ENDROOT
BRANCH   7   8
ATOM      8  C12 UNL     1      21.108   9.870  34.083  0.00  0.00    +0.111 A 
ATOM      9  N3  UNL     1      21.050  10.710  35.147  0.00  0.00    -0.239 NA
ATOM     10  C13 UNL     1      19.799  11.210  35.311  0.00  0.00    +0.079 A 
ATOM     11  C14 UNL     1      19.434  12.109  36.315  0.00  0.00    +0.029 A 
ATOM     12  C15 UNL     1      18.101  12.549  36.375  0.00  0.00    +0.002 A 
ATOM     13  C16 UNL     1      17.153  12.087  35.440  0.00  0.00    +0.001 A 
ATOM     14  C17 UNL     1      17.530  11.180  34.437  0.00  0.00    +0.017 A 
ATOM     15  C18 UNL     1      18.859  10.762  34.399  0.00  0.00    +0.040 A 
ATOM     16  S1  UNL     1      19.593   9.695  33.335  0.00  0.00    -0.067 S 
ENDBRANCH   7   8
BRANCH   1  21
ATOM     17  N1  UNL     1      19.900   6.156  36.102  0.00  0.00    -0.286 N 
ATOM     18  C4  UNL     1      18.878   5.162  35.760  0.00  0.00    +0.133 C 
ATOM     19  C5  UNL     1      20.872   6.525  35.098  0.00  0.00    +0.306 C 
ATOM     20  O2  UNL     1      20.736   6.101  33.917  0.00  0.00    -0.252 OA
ATOM     21  N2  UNL     1      21.995   7.365  35.415  0.00  0.00    -0.269 N 
ATOM     22  H11 UNL     1      22.391   7.335  36.379  0.00  0.00    +0.156 HD
BRANCH  17  23
ATOM     23  C3  UNL     1      19.842   6.816  37.418  0.00  0.00    +0.140 C 
BRANCH  23  25
ATOM     24  C1  UNL     1      18.490   8.882  38.031  0.00  0.00    +0.039 C 
ATOM     25  C2  UNL     1      19.714   8.343  37.283  0.00  0.00    +0.129 C 
BRANCH  25  26
ATOM     26  O1  UNL     1      20.876   8.940  37.796  0.00  0.00    -0.391 OA
ATOM     27  H5  UNL     1      21.233   9.534  37.086  0.00  0.00    +0.210 HD
ENDBRANCH  25  26
ENDBRANCH  23  25
ENDBRANCH  17  23
ENDBRANCH   1  21
TORSDOF 5
ENDMDL
MODEL 5
REMARK VINA RESULT:    -6.046     14.510     15.960
REMARK INTER + INTRA:          -8.580
REMARK INTER:                  -7.110
REMARK INTRA:                  -1.470
REMARK UNBOUND:                -0.943
REMARK  Name = /home/qwerty/github/datacon2025hack/step_04_hit_selection/docking/ligands/lig_533.pdb
REMARK  7 active torsions:
REMARK  status: ('A' for Active; 'I' for Inactive)
REMARK    1  A    between atoms: C1_1  and  C2_2
REMARK    2  A    between atoms: C2_2  and  O1_3
REMARK    3  A    between atoms: C2_2  and  C3_4
REMARK    4  A    between atoms: C3_4  and  N1_5
REMARK    5  A    between atoms: N1_5  and  C4_6
REMARK    6  A    between atoms: N2_9  and  C6_10
REMARK    7  A    between atoms: C11_16  and  C12_17
REMARK                            x       y       z     vdW  Elec       q    Type
REMARK                         _______ _______ _______ _____ _____    ______ ____
ROOT
ATOM      1  C6  UNL     1      15.180   0.739  20.904  0.00  0.00    +0.045 A 
ATOM      2  C7  UNL     1      16.203  -0.100  20.442  0.00  0.00    +0.027 A 
ATOM      3  C8  UNL     1      16.664  -1.158  21.228  0.00  0.00    +0.040 A 
ATOM      4  C9  UNL     1      16.105  -1.389  22.484  0.00  0.00    +0.124 A 
ATOM      5  F1  UNL     1      16.558  -2.412  23.250  0.00  0.00    -0.205 F 
ATOM      6  C10 UNL     1      15.064  -0.579  22.948  0.00  0.00    +0.050 A 
ATOM      7  C11 UNL     1      14.573   0.475  22.158  0.00  0.00    +0.031 A 
ENDROOT
BRANCH   7   8
ATOM      8  C12 UNL     1      13.404   1.237  22.648  0.00  0.00    +0.111 A 
ATOM      9  N3  UNL     1      12.125   0.898  22.351  0.00  0.00    -0.239 NA
ATOM     10  C13 UNL     1      11.245   1.786  22.881  0.00  0.00    +0.079 A 
ATOM     11  C14 UNL     1       9.858   1.695  22.753  0.00  0.00    +0.029 A 
ATOM     12  C15 UNL     1       9.058   2.684  23.350  0.00  0.00    +0.002 A 
ATOM     13  C16 UNL     1       9.650   3.748  24.061  0.00  0.00    +0.001 A 
ATOM     14  C17 UNL     1      11.046   3.832  24.180  0.00  0.00    +0.017 A 
ATOM     15  C18 UNL     1      11.815   2.837  23.580  0.00  0.00    +0.040 A 
ATOM     16  S1  UNL     1      13.483   2.676  23.549  0.00  0.00    -0.067 S 
ENDBRANCH   7   8
BRANCH   1  21
ATOM     17  N1  UNL     1      14.818   4.352  19.705  0.00  0.00    -0.286 N 
ATOM     18  C4  UNL     1      15.567   5.611  19.774  0.00  0.00    +0.133 C 
ATOM     19  C5  UNL     1      15.406   3.163  20.279  0.00  0.00    +0.306 C 
ATOM     20  O2  UNL     1      16.471   3.259  20.950  0.00  0.00    -0.252 OA
ATOM     21  N2  UNL     1      14.804   1.870  20.102  0.00  0.00    -0.269 N 
ATOM     22  H11 UNL     1      14.261   1.680  19.233  0.00  0.00    +0.156 HD
BRANCH  17  23
ATOM     23  C3  UNL     1      13.456   4.362  19.144  0.00  0.00    +0.140 C 
BRANCH  23  25
ATOM     24  C1  UNL     1      11.333   5.182  20.278  0.00  0.00    +0.039 C 
ATOM     25  C2  UNL     1      12.395   4.081  20.221  0.00  0.00    +0.129 C 
BRANCH  25  26
ATOM     26  O1  UNL     1      11.779   2.851  19.938  0.00  0.00    -0.391 OA
ATOM     27  H5  UNL     1      12.179   2.516  19.093  0.00  0.00    +0.210 HD
ENDBRANCH  25  26
ENDBRANCH  23  25
ENDBRANCH  17  23
ENDBRANCH   1  21
TORSDOF 5
ENDMDL
MODEL 6
REMARK VINA RESULT:    -5.898      7.300     10.218
REMARK INTER + INTRA:          -8.393
REMARK INTER:                  -6.832
REMARK INTRA:                  -1.561
REMARK UNBOUND:                -0.943
REMARK  Name = /home/qwerty/github/datacon2025hack/step_04_hit_selection/docking/ligands/lig_533.pdb
REMARK  7 active torsions:
REMARK  status: ('A' for Active; 'I' for Inactive)
REMARK    1  A    between atoms: C1_1  and  C2_2
REMARK    2  A    between atoms: C2_2  and  O1_3
REMARK    3  A    between atoms: C2_2  and  C3_4
REMARK    4  A    between atoms: C3_4  and  N1_5
REMARK    5  A    between atoms: N1_5  and  C4_6
REMARK    6  A    between atoms: N2_9  and  C6_10
REMARK    7  A    between atoms: C11_16  and  C12_17
REMARK                            x       y       z     vdW  Elec       q    Type
REMARK                         _______ _______ _______ _____ _____    ______ ____
ROOT
ATOM      1  C6  UNL     1      13.637  12.595  36.148  0.00  0.00    +0.045 A 
ATOM      2  C7  UNL     1      12.436  13.309  36.268  0.00  0.00    +0.027 A 
ATOM      3  C8  UNL     1      11.279  12.680  36.734  0.00  0.00    +0.040 A 
ATOM      4  C9  UNL     1      11.312  11.332  37.088  0.00  0.00    +0.124 A 
ATOM      5  F1  UNL     1      10.186  10.721  37.533  0.00  0.00    -0.205 F 
ATOM      6  C10 UNL     1      12.507  10.614  37.002  0.00  0.00    +0.050 A 
ATOM      7  C11 UNL     1      13.686  11.238  36.557  0.00  0.00    +0.031 A 
ENDROOT
BRANCH   7   8
ATOM      8  C12 UNL     1      14.946  10.464  36.581  0.00  0.00    +0.111 A 
ATOM      9  N3  UNL     1      15.864  10.581  37.573  0.00  0.00    -0.239 NA
ATOM     10  C13 UNL     1      16.949   9.801  37.332  0.00  0.00    +0.079 A 
ATOM     11  C14 UNL     1      18.054   9.703  38.180  0.00  0.00    +0.029 A 
ATOM     12  C15 UNL     1      19.115   8.858  37.811  0.00  0.00    +0.002 A 
ATOM     13  C16 UNL     1      19.061   8.127  36.607  0.00  0.00    +0.001 A 
ATOM     14  C17 UNL     1      17.946   8.236  35.760  0.00  0.00    +0.017 A 
ATOM     15  C18 UNL     1      16.909   9.080  36.151  0.00  0.00    +0.040 A 
ATOM     16  S1  UNL     1      15.472   9.414  35.354  0.00  0.00    -0.067 S 
ENDBRANCH   7   8
BRANCH   1  21
ATOM     17  N1  UNL     1      16.491  13.438  33.747  0.00  0.00    -0.286 N 
ATOM     18  C4  UNL     1      16.787  13.331  32.315  0.00  0.00    +0.133 C 
ATOM     19  C5  UNL     1      15.188  13.026  34.219  0.00  0.00    +0.306 C 
ATOM     20  O2  UNL     1      14.393  12.453  33.423  0.00  0.00    -0.252 OA
ATOM     21  N2  UNL     1      14.776  13.257  35.576  0.00  0.00    -0.269 N 
ATOM     22  H11 UNL     1      15.153  14.085  36.085  0.00  0.00    +0.156 HD
BRANCH  17  23
ATOM     23  C3  UNL     1      17.560  13.865  34.667  0.00  0.00    +0.140 C 
BRANCH  23  25
ATOM     24  C1  UNL     1      19.496  12.470  35.547  0.00  0.00    +0.039 C 
ATOM     25  C2  UNL     1      17.988  12.727  35.610  0.00  0.00    +0.129 C 
BRANCH  25  26
ATOM     26  O1  UNL     1      17.625  13.068  36.923  0.00  0.00    -0.391 OA
ATOM     27  H5  UNL     1      18.404  13.534  37.325  0.00  0.00    +0.210 HD
ENDBRANCH  25  26
ENDBRANCH  23  25
ENDBRANCH  17  23
ENDBRANCH   1  21
TORSDOF 5
ENDMDL
MODEL 7
REMARK VINA RESULT:    -5.845     15.217     16.802
REMARK INTER + INTRA:          -8.326
REMARK INTER:                  -6.785
REMARK INTRA:                  -1.541
REMARK UNBOUND:                -0.943
REMARK  Name = /home/qwerty/github/datacon2025hack/step_04_hit_selection/docking/ligands/lig_533.pdb
REMARK  7 active torsions:
REMARK  status: ('A' for Active; 'I' for Inactive)
REMARK    1  A    between atoms: C1_1  and  C2_2
REMARK    2  A    between atoms: C2_2  and  O1_3
REMARK    3  A    between atoms: C2_2  and  C3_4
REMARK    4  A    between atoms: C3_4  and  N1_5
REMARK    5  A    between atoms: N1_5  and  C4_6
REMARK    6  A    between atoms: N2_9  and  C6_10
REMARK    7  A    between atoms: C11_16  and  C12_17
REMARK                            x       y       z     vdW  Elec       q    Type
REMARK                         _______ _______ _______ _____ _____    ______ ____
ROOT
ATOM      1  C6  UNL     1       8.185   8.417  26.069  0.00  0.00    +0.045 A 
ATOM      2  C7  UNL     1       7.454   8.298  27.260  0.00  0.00    +0.027 A 
ATOM      3  C8  UNL     1       7.327   9.385  28.127  0.00  0.00    +0.040 A 
ATOM      4  C9  UNL     1       7.926  10.603  27.811  0.00  0.00    +0.124 A 
ATOM      5  F1  UNL     1       7.808  11.656  28.657  0.00  0.00    -0.205 F 
ATOM      6  C10 UNL     1       8.634  10.747  26.615  0.00  0.00    +0.050 A 
ATOM      7  C11 UNL     1       8.752   9.669  25.720  0.00  0.00    +0.031 A 
ENDROOT
BRANCH   7   8
ATOM      8  C12 UNL     1       9.422   9.900  24.422  0.00  0.00    +0.111 A 
ATOM      9  N3  UNL     1       8.742  10.060  23.259  0.00  0.00    -0.239 NA
ATOM     10  C13 UNL     1       9.590  10.207  22.209  0.00  0.00    +0.079 A 
ATOM     11  C14 UNL     1       9.185  10.401  20.888  0.00  0.00    +0.029 A 
ATOM     12  C15 UNL     1      10.168  10.538  19.893  0.00  0.00    +0.002 A 
ATOM     13  C16 UNL     1      11.536  10.476  20.227  0.00  0.00    +0.001 A 
ATOM     14  C17 UNL     1      11.932  10.277  21.559  0.00  0.00    +0.017 A 
ATOM     15  C18 UNL     1      10.937  10.147  22.525  0.00  0.00    +0.040 A 
ATOM     16  S1  UNL     1      11.103   9.898  24.175  0.00  0.00    -0.067 S 
ENDBRANCH   7   8
BRANCH   1  21
ATOM     17  N1  UNL     1       9.895   5.540  24.219  0.00  0.00    -0.286 N 
ATOM     18  C4  UNL     1      11.087   4.698  24.362  0.00  0.00    +0.133 C 
ATOM     19  C5  UNL     1       9.602   6.509  25.250  0.00  0.00    +0.306 C 
ATOM     20  O2  UNL     1      10.444   6.712  26.168  0.00  0.00    -0.252 OA
ATOM     21  N2  UNL     1       8.369   7.247  25.255  0.00  0.00    -0.269 N 
ATOM     22  H11 UNL     1       7.515   6.807  24.852  0.00  0.00    +0.156 HD
BRANCH  17  23
ATOM     23  C3  UNL     1       9.095   5.440  22.986  0.00  0.00    +0.140 C 
BRANCH  23  25
ATOM     24  C1  UNL     1       9.694   6.436  20.723  0.00  0.00    +0.039 C 
ATOM     25  C2  UNL     1       9.190   6.722  22.141  0.00  0.00    +0.129 C 
BRANCH  25  26
ATOM     26  O1  UNL     1       7.917   7.313  22.074  0.00  0.00    -0.391 OA
ATOM     27  H5  UNL     1       7.812   7.864  22.893  0.00  0.00    +0.210 HD
ENDBRANCH  25  26
ENDBRANCH  23  25
ENDBRANCH  17  23
ENDBRANCH   1  21
TORSDOF 5
ENDMDL
MODEL 8
REMARK VINA RESULT:    -5.778      9.033     12.318
REMARK INTER + INTRA:          -8.242
REMARK INTER:                  -6.847
REMARK INTRA:                  -1.395
REMARK UNBOUND:                -0.943
REMARK  Name = /home/qwerty/github/datacon2025hack/step_04_hit_selection/docking/ligands/lig_533.pdb
REMARK  7 active torsions:
REMARK  status: ('A' for Active; 'I' for Inactive)
REMARK    1  A    between atoms: C1_1  and  C2_2
REMARK    2  A    between atoms: C2_2  and  O1_3
REMARK    3  A    between atoms: C2_2  and  C3_4
REMARK    4  A    between atoms: C3_4  and  N1_5
REMARK    5  A    between atoms: N1_5  and  C4_6
REMARK    6  A    between atoms: N2_9  and  C6_10
REMARK    7  A    between atoms: C11_16  and  C12_17
REMARK                            x       y       z     vdW  Elec       q    Type
REMARK                         _______ _______ _______ _____ _____    ______ ____
ROOT
ATOM      1  C6  UNL     1      20.151   2.311  24.855  0.00  0.00    +0.045 A 
ATOM      2  C7  UNL     1      21.351   3.037  24.870  0.00  0.00    +0.027 A 
ATOM      3  C8  UNL     1      22.265   2.876  25.913  0.00  0.00    +0.040 A 
ATOM      4  C9  UNL     1      21.990   1.987  26.951  0.00  0.00    +0.124 A 
ATOM      5  F1  UNL     1      22.875   1.837  27.967  0.00  0.00    -0.205 F 
ATOM      6  C10 UNL     1      20.812   1.235  26.936  0.00  0.00    +0.050 A 
ATOM      7  C11 UNL     1      19.893   1.368  25.881  0.00  0.00    +0.031 A 
ENDROOT
BRANCH   7   8
ATOM      8  C12 UNL     1      18.712   0.478  25.858  0.00  0.00    +0.111 A 
ATOM      9  N3  UNL     1      18.672  -0.677  25.147  0.00  0.00    -0.239 NA
ATOM     10  C13 UNL     1      17.461  -1.280  25.256  0.00  0.00    +0.079 A 
ATOM     11  C14 UNL     1      17.124  -2.489  24.645  0.00  0.00    +0.029 A 
ATOM     12  C15 UNL     1      15.831  -3.005  24.837  0.00  0.00    +0.002 A 
ATOM     13  C16 UNL     1      14.896  -2.311  25.632  0.00  0.00    +0.001 A 
ATOM     14  C17 UNL     1      15.245  -1.095  26.239  0.00  0.00    +0.017 A 
ATOM     15  C18 UNL     1      16.533  -0.607  26.033  0.00  0.00    +0.040 A 
ATOM     16  S1  UNL     1      17.227   0.804  26.616  0.00  0.00    -0.067 S 
ENDBRANCH   7   8
BRANCH   1  21
ATOM     17  N1  UNL     1      17.004   3.554  23.074  0.00  0.00    -0.286 N 
ATOM     18  C4  UNL     1      16.029   4.642  23.200  0.00  0.00    +0.133 C 
ATOM     19  C5  UNL     1      18.125   3.518  23.985  0.00  0.00    +0.306 C 
ATOM     20  O2  UNL     1      18.165   4.327  24.952  0.00  0.00    -0.252 OA
ATOM     21  N2  UNL     1      19.200   2.579  23.812  0.00  0.00    -0.269 N 
ATOM     22  H11 UNL     1      19.442   2.260  22.850  0.00  0.00    +0.156 HD
BRANCH  17  23
ATOM     23  C3  UNL     1      16.754   2.483  22.093  0.00  0.00    +0.140 C 
BRANCH  23  25
ATOM     24  C1  UNL     1      14.937   0.709  22.236  0.00  0.00    +0.039 C 
ATOM     25  C2  UNL     1      16.290   1.184  22.774  0.00  0.00    +0.129 C 
BRANCH  25  26
ATOM     26  O1  UNL     1      17.256   0.189  22.553  0.00  0.00    -0.391 OA
ATOM     27  H5  UNL     1      18.136   0.586  22.785  0.00  0.00    +0.210 HD
ENDBRANCH  25  26
ENDBRANCH  23  25
ENDBRANCH  17  23
ENDBRANCH   1  21
TORSDOF 5
ENDMDL
MODEL 9
REMARK VINA RESULT:    -5.740      6.277      9.413
REMARK INTER + INTRA:          -8.193
REMARK INTER:                  -7.486
REMARK INTRA:                  -0.707
REMARK UNBOUND:                -0.943
REMARK  Name = /home/qwerty/github/datacon2025hack/step_04_hit_selection/docking/ligands/lig_533.pdb
REMARK  7 active torsions:
REMARK  status: ('A' for Active; 'I' for Inactive)
REMARK    1  A    between atoms: C1_1  and  C2_2
REMARK    2  A    between atoms: C2_2  and  O1_3
REMARK    3  A    between atoms: C2_2  and  C3_4
REMARK    4  A    between atoms: C3_4  and  N1_5
REMARK    5  A    between atoms: N1_5  and  C4_6
REMARK    6  A    between atoms: N2_9  and  C6_10
REMARK    7  A    between atoms: C11_16  and  C12_17
REMARK                            x       y       z     vdW  Elec       q    Type
REMARK                         _______ _______ _______ _____ _____    ______ ____
ROOT
ATOM      1  C6  UNL     1      20.276   1.886  28.105  0.00  0.00    +0.045 A 
ATOM      2  C7  UNL     1      21.295   2.794  28.428  0.00  0.00    +0.027 A 
ATOM      3  C8  UNL     1      22.175   3.253  27.446  0.00  0.00    +0.040 A 
ATOM      4  C9  UNL     1      22.043   2.812  26.130  0.00  0.00    +0.124 A 
ATOM      5  F1  UNL     1      22.902   3.253  25.178  0.00  0.00    -0.205 F 
ATOM      6  C10 UNL     1      21.015   1.930  25.786  0.00  0.00    +0.050 A 
ATOM      7  C11 UNL     1      20.107   1.477  26.758  0.00  0.00    +0.031 A 
ENDROOT
BRANCH   7   8
ATOM      8  C12 UNL     1      18.976   0.627  26.326  0.00  0.00    +0.111 A 
ATOM      9  N3  UNL     1      17.758   0.661  26.922  0.00  0.00    -0.239 NA
ATOM     10  C13 UNL     1      16.915  -0.249  26.370  0.00  0.00    +0.079 A 
ATOM     11  C14 UNL     1      15.590  -0.440  26.766  0.00  0.00    +0.029 A 
ATOM     12  C15 UNL     1      14.824  -1.419  26.111  0.00  0.00    +0.002 A 
ATOM     13  C16 UNL     1      15.387  -2.192  25.076  0.00  0.00    +0.001 A 
ATOM     14  C17 UNL     1      16.722  -1.994  24.688  0.00  0.00    +0.017 A 
ATOM     15  C18 UNL     1      17.458  -1.016  25.353  0.00  0.00    +0.040 A 
ATOM     16  S1  UNL     1      19.054  -0.563  25.116  0.00  0.00    -0.067 S 
ENDBRANCH   7   8
BRANCH   1  21
ATOM     17  N1  UNL     1      17.968   1.769  31.151  0.00  0.00    -0.286 N 
ATOM     18  C4  UNL     1      16.922   2.591  31.768  0.00  0.00    +0.133 C 
ATOM     19  C5  UNL     1      18.548   2.206  29.902  0.00  0.00    +0.306 C 
ATOM     20  O2  UNL     1      18.253   3.346  29.446  0.00  0.00    -0.252 OA
ATOM     21  N2  UNL     1      19.455   1.370  29.165  0.00  0.00    -0.269 N 
ATOM     22  H11 UNL     1      19.354   0.335  29.230  0.00  0.00    +0.156 HD
BRANCH  17  23
ATOM     23  C3  UNL     1      18.460   0.583  31.873  0.00  0.00    +0.140 C 
BRANCH  23  25
ATOM     24  C1  UNL     1      19.965   1.965  33.389  0.00  0.00    +0.039 C 
ATOM     25  C2  UNL     1      19.888   0.793  32.405  0.00  0.00    +0.129 C 
BRANCH  25  26
ATOM     26  O1  UNL     1      20.309  -0.384  33.046  0.00  0.00    -0.391 OA
ATOM     27  H5  UNL     1      21.254  -0.535  32.782  0.00  0.00    +0.210 HD
ENDBRANCH  25  26
ENDBRANCH  23  25
ENDBRANCH  17  23
ENDBRANCH   1  21
TORSDOF 5
ENDMDL
