REMARK  Name = /home/qwerty/github/datacon2025hack/step_04_hit_selection/docking/ligands/lig_787.pdb
REMARK  5 active torsions:
REMARK  status: ('A' for Active; 'I' for Inactive)
REMARK    1  A    between atoms: C1_1  and  O1_2
REMARK    2  A    between atoms: O1_2  and  C2_3
REMARK    3  A    between atoms: C5_6  and  C6_7
REMARK    4  A    between atoms: N1_9  and  C7_10
REMARK    5  A    between atoms: C12_16  and  C13_17
REMARK                            x       y       z     vdW  Elec       q    Type
REMARK                         _______ _______ _______ _____ _____    ______ ____
ROOT
ATOM      1  C7  UNL     1       0.290   2.128  -1.990  0.00  0.00    +0.049 A 
ATOM      2  C8  UNL     1       0.388   2.816  -3.209  0.00  0.00    +0.062 A 
ATOM      3  C9  UNL     1      -0.730   3.450  -3.757  0.00  0.00    +0.125 A 
ATOM      4  F1  UNL     1      -0.627   4.099  -4.943  0.00  0.00    -0.205 F 
ATOM      5  C10 UNL     1      -1.952   3.414  -3.086  0.00  0.00    +0.039 A 
ATOM      6  C11 UNL     1      -2.059   2.757  -1.858  0.00  0.00    +0.018 A 
ATOM      7  C12 UNL     1      -0.943   2.117  -1.292  0.00  0.00    +0.058 A 
ENDROOT
BRANCH   7   8
ATOM      8  C13 UNL     1      -1.065   1.513   0.050  0.00  0.00    +0.249 C 
ATOM      9  O3  UNL     1      -0.193   1.751   0.927  0.00  0.00    -0.270 OA
ATOM     10  N2  UNL     1      -2.149   0.638   0.360  0.00  0.00    -0.292 N 
ATOM     11  C14 UNL     1      -2.584  -0.158   1.528  0.00  0.00    +0.145 C 
ATOM     12  C15 UNL     1      -3.706  -0.839   0.821  0.00  0.00    +0.144 C 
ATOM     13  C16 UNL     1      -3.265  -0.027  -0.349  0.00  0.00    +0.145 C 
ATOM     14  N3  UNL     1      -3.557  -2.282   0.665  0.00  0.00    -0.282 N 
ATOM     15  C17 UNL     1      -4.795  -2.856   1.075  0.00  0.00    +0.307 C 
ATOM     16  O4  UNL     1      -5.017  -4.095   1.068  0.00  0.00    -0.252 OA
ATOM     17  N4  UNL     1      -5.756  -1.896   1.491  0.00  0.00    -0.238 N 
ATOM     18  C18 UNL     1      -5.096  -0.647   1.339  0.00  0.00    +0.247 C 
ATOM     19  O5  UNL     1      -5.632   0.460   1.612  0.00  0.00    -0.273 OA
ATOM     20  H14 UNL     1      -2.716  -2.798   0.323  0.00  0.00    +0.151 HD
ATOM     21  H15 UNL     1      -6.728  -2.069   1.832  0.00  0.00    +0.159 HD
ENDBRANCH   7   8
BRANCH   1  24
ATOM     22  C6  UNL     1       1.428   0.057  -1.119  0.00  0.00    +0.248 C 
ATOM     23  O2  UNL     1       0.466  -0.670  -1.494  0.00  0.00    -0.270 OA
ATOM     24  N1  UNL     1       1.450   1.447  -1.486  0.00  0.00    -0.281 N 
ATOM     25  H6  UNL     1       2.377   1.917  -1.595  0.00  0.00    +0.155 HD
BRANCH  22  29
ATOM     26  C2  UNL     1       4.600  -1.699   1.204  0.00  0.00    +0.120 A 
ATOM     27  C3  UNL     1       4.421  -0.303   1.189  0.00  0.00    +0.046 A 
ATOM     28  C4  UNL     1       3.393   0.269   0.434  0.00  0.00    +0.016 A 
ATOM     29  C5  UNL     1       2.528  -0.539  -0.325  0.00  0.00    +0.037 A 
ATOM     30  C19 UNL     1       2.705  -1.934  -0.298  0.00  0.00    +0.016 A 
ATOM     31  C20 UNL     1       3.734  -2.504   0.457  0.00  0.00    +0.046 A 
BRANCH  26  33
ATOM     32  C1  UNL     1       6.565  -1.625   2.747  0.00  0.00    +0.277 C 
ATOM     33  O1  UNL     1       5.617  -2.320   1.944  0.00  0.00    -0.495 OA
ENDBRANCH  26  33
ENDBRANCH  22  29
ENDBRANCH   1  24
TORSDOF 4
