MODEL 1
REMARK VINA RESULT:    -6.521      0.000      0.000
REMARK INTER + INTRA:          -8.161
REMARK INTER:                  -7.665
REMARK INTRA:                  -0.496
REMARK UNBOUND:                -0.496
REMARK  Name = /home/qwerty/github/datacon2025hack/step_04_hit_selection/docking/ligands/lig_745.pdb
REMARK  3 active torsions:
REMARK  status: ('A' for Active; 'I' for Inactive)
REMARK    1  A    between atoms: C1_2  and  C12_17
REMARK    2  A    between atoms: N1_3  and  C2_4
REMARK    3  A    between atoms: N2_8  and  C5_9
REMARK                            x       y       z     vdW  Elec       q    Type
REMARK                         _______ _______ _______ _____ _____    ______ ____
ROOT
ATOM      1  C2  UNL     1      20.812   3.776  24.533  0.00  0.00    +0.100 C 
ATOM      2  C3  UNL     1      20.348   2.408  23.991  0.00  0.00    +0.120 C 
ATOM      3  C4  UNL     1      20.328   1.564  25.203  0.00  0.00    +0.222 C 
ATOM      4  O2  UNL     1      19.930   0.369  25.208  0.00  0.00    -0.275 OA
ATOM      5  N2  UNL     1      20.886   2.208  26.337  0.00  0.00    -0.270 N 
ATOM      6  C11 UNL     1      21.399   3.509  25.936  0.00  0.00    +0.136 C 
ENDROOT
BRANCH   5   7
ATOM      7  C5  UNL     1      20.992   1.659  27.667  0.00  0.00    +0.038 A 
ATOM      8  C6  UNL     1      22.216   1.151  28.139  0.00  0.00    +0.023 A 
ATOM      9  C7  UNL     1      22.309   0.608  29.424  0.00  0.00    +0.003 A 
ATOM     10  C8  UNL     1      21.183   0.559  30.248  0.00  0.00    +0.020 A 
ATOM     11  C9  UNL     1      19.957   1.047  29.786  0.00  0.00    +0.043 A 
ATOM     12 CL1  UNL     1      18.540   0.979  30.818  0.00  0.00    -0.083 Cl
ATOM     13  C10 UNL     1      19.861   1.590  28.499  0.00  0.00    +0.043 A 
ENDBRANCH   5   7
BRANCH   1  16
ATOM     14  O1  UNL     1      20.251   5.939  22.782  0.00  0.00    -0.268 OA
ATOM     15  C1  UNL     1      21.438   5.513  22.795  0.00  0.00    +0.264 C 
ATOM     16  N1  UNL     1      21.797   4.418  23.654  0.00  0.00    -0.305 N 
ATOM     17  H1  UNL     1      22.774   4.052  23.626  0.00  0.00    +0.149 HD
BRANCH  15  18
ATOM     18  C12 UNL     1      22.435   6.161  21.923  0.00  0.00    +0.147 A 
ATOM     19  C13 UNL     1      23.487   6.992  22.331  0.00  0.00    +0.057 A 
ATOM     20  C14 UNL     1      24.122   7.278  21.145  0.00  0.00    +0.040 A 
ATOM     21  N3  UNL     1      23.505   6.679  20.158  0.00  0.00    -0.268 N 
ATOM     22  N4  UNL     1      22.492   5.951  20.584  0.00  0.00    -0.166 NA
ATOM     23  C15 UNL     1      24.266   6.622  18.937  0.00  0.00    +0.144 C 
ATOM     24  C16 UNL     1      25.538   7.442  19.281  0.00  0.00    +0.029 C 
ATOM     25  C17 UNL     1      25.450   7.808  20.790  0.00  0.00    +0.057 C 
ENDBRANCH  15  18
ENDBRANCH   1  16
TORSDOF 3
ENDMDL
MODEL 2
REMARK VINA RESULT:    -6.221      1.742      2.118
REMARK INTER + INTRA:          -7.808
REMARK INTER:                  -7.335
REMARK INTRA:                  -0.473
REMARK UNBOUND:                -0.496
REMARK  Name = /home/qwerty/github/datacon2025hack/step_04_hit_selection/docking/ligands/lig_745.pdb
REMARK  3 active torsions:
REMARK  status: ('A' for Active; 'I' for Inactive)
REMARK    1  A    between atoms: C1_2  and  C12_17
REMARK    2  A    between atoms: N1_3  and  C2_4
REMARK    3  A    between atoms: N2_8  and  C5_9
REMARK                            x       y       z     vdW  Elec       q    Type
REMARK                         _______ _______ _______ _____ _____    ______ ____
ROOT
ATOM      1  C2  UNL     1      21.023   4.472  24.358  0.00  0.00    +0.100 C 
ATOM      2  C3  UNL     1      20.563   3.152  23.706  0.00  0.00    +0.120 C 
ATOM      3  C4  UNL     1      20.628   2.192  24.826  0.00  0.00    +0.222 C 
ATOM      4  O2  UNL     1      20.260   0.990  24.731  0.00  0.00    -0.275 OA
ATOM      5  N2  UNL     1      21.231   2.735  25.990  0.00  0.00    -0.270 N 
ATOM      6  C11 UNL     1      21.691   4.084  25.696  0.00  0.00    +0.136 C 
ENDROOT
BRANCH   5   7
ATOM      7  C5  UNL     1      21.422   2.060  27.250  0.00  0.00    +0.038 A 
ATOM      8  C6  UNL     1      20.322   1.734  28.064  0.00  0.00    +0.023 A 
ATOM      9  C7  UNL     1      20.515   1.091  29.290  0.00  0.00    +0.003 A 
ATOM     10  C8  UNL     1      21.804   0.773  29.721  0.00  0.00    +0.020 A 
ATOM     11  C9  UNL     1      22.907   1.104  28.928  0.00  0.00    +0.043 A 
ATOM     12 CL1  UNL     1      24.528   0.712  29.472  0.00  0.00    -0.083 Cl
ATOM     13  C10 UNL     1      22.717   1.749  27.700  0.00  0.00    +0.043 A 
ENDBRANCH   5   7
BRANCH   1  16
ATOM     14  O1  UNL     1      20.262   6.617  22.661  0.00  0.00    -0.268 OA
ATOM     15  C1  UNL     1      21.484   6.305  22.668  0.00  0.00    +0.264 C 
ATOM     16  N1  UNL     1      21.944   5.226  23.499  0.00  0.00    -0.305 N 
ATOM     17  H1  UNL     1      22.951   4.955  23.465  0.00  0.00    +0.149 HD
BRANCH  15  18
ATOM     18  C12 UNL     1      22.416   7.066  21.816  0.00  0.00    +0.147 A 
ATOM     19  C13 UNL     1      22.072   7.979  20.810  0.00  0.00    +0.057 A 
ATOM     20  C14 UNL     1      23.298   8.424  20.374  0.00  0.00    +0.040 A 
ATOM     21  N3  UNL     1      24.249   7.833  21.053  0.00  0.00    -0.268 N 
ATOM     22  N4  UNL     1      23.764   7.024  21.974  0.00  0.00    -0.166 NA
ATOM     23  C15 UNL     1      25.539   8.462  20.928  0.00  0.00    +0.144 C 
ATOM     24  C16 UNL     1      25.279   9.585  19.889  0.00  0.00    +0.029 C 
ATOM     25  C17 UNL     1      23.753   9.584  19.589  0.00  0.00    +0.057 C 
ENDBRANCH  15  18
ENDBRANCH   1  16
TORSDOF 3
ENDMDL
MODEL 3
REMARK VINA RESULT:    -6.060     11.152     13.200
REMARK INTER + INTRA:          -7.619
REMARK INTER:                  -7.114
REMARK INTRA:                  -0.505
REMARK UNBOUND:                -0.496
REMARK  Name = /home/qwerty/github/datacon2025hack/step_04_hit_selection/docking/ligands/lig_745.pdb
REMARK  3 active torsions:
REMARK  status: ('A' for Active; 'I' for Inactive)
REMARK    1  A    between atoms: C1_2  and  C12_17
REMARK    2  A    between atoms: N1_3  and  C2_4
REMARK    3  A    between atoms: N2_8  and  C5_9
REMARK                            x       y       z     vdW  Elec       q    Type
REMARK                         _______ _______ _______ _____ _____    ______ ____
ROOT
ATOM      1  C2  UNL     1      10.375   4.898  20.774  0.00  0.00    +0.100 C 
ATOM      2  C3  UNL     1       8.889   4.501  20.655  0.00  0.00    +0.120 C 
ATOM      3  C4  UNL     1       8.195   5.622  21.320  0.00  0.00    +0.222 C 
ATOM      4  O2  UNL     1       6.941   5.723  21.379  0.00  0.00    -0.275 OA
ATOM      5  N2  UNL     1       9.084   6.522  21.963  0.00  0.00    -0.270 N 
ATOM      6  C11 UNL     1      10.441   6.013  21.841  0.00  0.00    +0.136 C 
ENDROOT
BRANCH   5   7
ATOM      7  C5  UNL     1       8.718   7.721  22.678  0.00  0.00    +0.038 A 
ATOM      8  C6  UNL     1       8.682   7.736  24.084  0.00  0.00    +0.023 A 
ATOM      9  C7  UNL     1       8.314   8.897  24.770  0.00  0.00    +0.003 A 
ATOM     10  C8  UNL     1       7.973  10.052  24.063  0.00  0.00    +0.020 A 
ATOM     11  C9  UNL     1       7.992  10.046  22.665  0.00  0.00    +0.043 A 
ATOM     12 CL1  UNL     1       7.556  11.494  21.776  0.00  0.00    -0.083 Cl
ATOM     13  C10 UNL     1       8.358   8.884  21.975  0.00  0.00    +0.043 A 
ENDBRANCH   5   7
BRANCH   1  16
ATOM     14  O1  UNL     1      12.712   4.115  19.366  0.00  0.00    -0.268 OA
ATOM     15  C1  UNL     1      12.400   3.425  20.375  0.00  0.00    +0.264 C 
ATOM     16  N1  UNL     1      11.228   3.760  21.136  0.00  0.00    -0.305 N 
ATOM     17  H1  UNL     1      10.962   3.157  21.946  0.00  0.00    +0.149 HD
BRANCH  15  18
ATOM     18  C12 UNL     1      13.259   2.288  20.751  0.00  0.00    +0.147 A 
ATOM     19  C13 UNL     1      14.493   1.949  20.179  0.00  0.00    +0.057 A 
ATOM     20  C14 UNL     1      14.877   0.854  20.919  0.00  0.00    +0.040 A 
ATOM     21  N3  UNL     1      13.965   0.588  21.821  0.00  0.00    -0.268 N 
ATOM     22  N4  UNL     1      12.976   1.459  21.788  0.00  0.00    -0.166 NA
ATOM     23  C15 UNL     1      14.409  -0.304  22.860  0.00  0.00    +0.144 C 
ATOM     24  C16 UNL     1      15.837  -0.695  22.397  0.00  0.00    +0.029 C 
ATOM     25  C17 UNL     1      16.154   0.152  21.132  0.00  0.00    +0.057 C 
ENDBRANCH  15  18
ENDBRANCH   1  16
TORSDOF 3
ENDMDL
MODEL 4
REMARK VINA RESULT:    -6.055     13.925     16.505
REMARK INTER + INTRA:          -7.613
REMARK INTER:                  -7.109
REMARK INTRA:                  -0.504
REMARK UNBOUND:                -0.496
REMARK  Name = /home/qwerty/github/datacon2025hack/step_04_hit_selection/docking/ligands/lig_745.pdb
REMARK  3 active torsions:
REMARK  status: ('A' for Active; 'I' for Inactive)
REMARK    1  A    between atoms: C1_2  and  C12_17
REMARK    2  A    between atoms: N1_3  and  C2_4
REMARK    3  A    between atoms: N2_8  and  C5_9
REMARK                            x       y       z     vdW  Elec       q    Type
REMARK                         _______ _______ _______ _____ _____    ______ ____
ROOT
ATOM      1  C2  UNL     1      16.172  11.880  36.877  0.00  0.00    +0.100 C 
ATOM      2  C3  UNL     1      16.504  13.371  37.096  0.00  0.00    +0.120 C 
ATOM      3  C4  UNL     1      15.369  14.058  36.449  0.00  0.00    +0.222 C 
ATOM      4  O2  UNL     1      15.216  15.309  36.464  0.00  0.00    -0.275 OA
ATOM      5  N2  UNL     1      14.520  13.175  35.733  0.00  0.00    -0.270 N 
ATOM      6  C11 UNL     1      15.083  11.835  35.784  0.00  0.00    +0.136 C 
ENDROOT
BRANCH   5   7
ATOM      7  C5  UNL     1      13.322  13.534  35.014  0.00  0.00    +0.038 A 
ATOM      8  C6  UNL     1      13.345  13.709  33.619  0.00  0.00    +0.023 A 
ATOM      9  C7  UNL     1      12.183  14.070  32.931  0.00  0.00    +0.003 A 
ATOM     10  C8  UNL     1      10.989  14.268  33.626  0.00  0.00    +0.020 A 
ATOM     11  C9  UNL     1      10.954  14.112  35.015  0.00  0.00    +0.043 A 
ATOM     12 CL1  UNL     1       9.456  14.368  35.890  0.00  0.00    -0.083 Cl
ATOM     13  C10 UNL     1      12.117  13.751  35.707  0.00  0.00    +0.043 A 
ENDBRANCH   5   7
BRANCH   1  16
ATOM     14  O1  UNL     1      17.489   9.999  38.548  0.00  0.00    -0.268 OA
ATOM     15  C1  UNL     1      17.964  10.160  37.391  0.00  0.00    +0.264 C 
ATOM     16  N1  UNL     1      17.353  11.098  36.489  0.00  0.00    -0.305 N 
ATOM     17  H1  UNL     1      17.780  11.248  35.549  0.00  0.00    +0.149 HD
BRANCH  15  18
ATOM     18  C12 UNL     1      19.142   9.369  36.991  0.00  0.00    +0.147 A 
ATOM     19  C13 UNL     1      20.006   9.640  35.921  0.00  0.00    +0.057 A 
ATOM     20  C14 UNL     1      20.940   8.636  36.026  0.00  0.00    +0.040 A 
ATOM     21  N3  UNL     1      20.649   7.867  37.046  0.00  0.00    -0.268 N 
ATOM     22  N4  UNL     1      19.584   8.295  37.694  0.00  0.00    -0.166 NA
ATOM     23  C15 UNL     1      21.726   7.004  37.458  0.00  0.00    +0.144 C 
ATOM     24  C16 UNL     1      22.818   7.277  36.390  0.00  0.00    +0.029 C 
ATOM     25  C17 UNL     1      22.294   8.428  35.485  0.00  0.00    +0.057 C 
ENDBRANCH  15  18
ENDBRANCH   1  16
TORSDOF 3
ENDMDL
MODEL 5
REMARK VINA RESULT:    -6.017     12.480     15.057
REMARK INTER + INTRA:          -7.569
REMARK INTER:                  -7.123
REMARK INTRA:                  -0.446
REMARK UNBOUND:                -0.496
REMARK  Name = /home/qwerty/github/datacon2025hack/step_04_hit_selection/docking/ligands/lig_745.pdb
REMARK  3 active torsions:
REMARK  status: ('A' for Active; 'I' for Inactive)
REMARK    1  A    between atoms: C1_2  and  C12_17
REMARK    2  A    between atoms: N1_3  and  C2_4
REMARK    3  A    between atoms: N2_8  and  C5_9
REMARK                            x       y       z     vdW  Elec       q    Type
REMARK                         _______ _______ _______ _____ _____    ______ ____
ROOT
ATOM      1  C2  UNL     1      17.763  11.404  36.599  0.00  0.00    +0.100 C 
ATOM      2  C3  UNL     1      17.589  12.747  35.861  0.00  0.00    +0.120 C 
ATOM      3  C4  UNL     1      16.146  12.763  35.546  0.00  0.00    +0.222 C 
ATOM      4  O2  UNL     1      15.569  13.739  34.996  0.00  0.00    -0.275 OA
ATOM      5  N2  UNL     1      15.499  11.537  35.844  0.00  0.00    -0.270 N 
ATOM      6  C11 UNL     1      16.492  10.579  36.304  0.00  0.00    +0.136 C 
ENDROOT
BRANCH   5   7
ATOM      7  C5  UNL     1      14.097  11.245  35.670  0.00  0.00    +0.038 A 
ATOM      8  C6  UNL     1      13.600  10.817  34.426  0.00  0.00    +0.023 A 
ATOM      9  C7  UNL     1      12.238  10.549  34.261  0.00  0.00    +0.003 A 
ATOM     10  C8  UNL     1      11.357  10.712  35.331  0.00  0.00    +0.020 A 
ATOM     11  C9  UNL     1      11.835  11.150  36.570  0.00  0.00    +0.043 A 
ATOM     12 CL1  UNL     1      10.726  11.361  37.913  0.00  0.00    -0.083 Cl
ATOM     13  C10 UNL     1      13.198  11.420  36.738  0.00  0.00    +0.043 A 
ENDBRANCH   5   7
BRANCH   1  16
ATOM     14  O1  UNL     1      18.970   9.274  38.038  0.00  0.00    -0.268 OA
ATOM     15  C1  UNL     1      19.527   9.617  36.959  0.00  0.00    +0.264 C 
ATOM     16  N1  UNL     1      18.975  10.689  36.178  0.00  0.00    -0.305 N 
ATOM     17  H1  UNL     1      19.468  10.987  35.308  0.00  0.00    +0.149 HD
BRANCH  15  18
ATOM     18  C12 UNL     1      20.737   8.896  36.524  0.00  0.00    +0.147 A 
ATOM     19  C13 UNL     1      21.322   7.790  37.156  0.00  0.00    +0.057 A 
ATOM     20  C14 UNL     1      22.378   7.493  36.325  0.00  0.00    +0.040 A 
ATOM     21  N3  UNL     1      22.401   8.334  35.322  0.00  0.00    -0.268 N 
ATOM     22  N4  UNL     1      21.397   9.187  35.374  0.00  0.00    -0.166 NA
ATOM     23  C15 UNL     1      23.235   7.918  34.224  0.00  0.00    +0.144 C 
ATOM     24  C16 UNL     1      23.890   6.617  34.759  0.00  0.00    +0.029 C 
ATOM     25  C17 UNL     1      23.242   6.315  36.140  0.00  0.00    +0.057 C 
ENDBRANCH  15  18
ENDBRANCH   1  16
TORSDOF 3
ENDMDL
MODEL 6
REMARK VINA RESULT:    -5.953      7.690     11.070
REMARK INTER + INTRA:          -7.493
REMARK INTER:                  -7.240
REMARK INTRA:                  -0.253
REMARK UNBOUND:                -0.496
REMARK  Name = /home/qwerty/github/datacon2025hack/step_04_hit_selection/docking/ligands/lig_745.pdb
REMARK  3 active torsions:
REMARK  status: ('A' for Active; 'I' for Inactive)
REMARK    1  A    between atoms: C1_2  and  C12_17
REMARK    2  A    between atoms: N1_3  and  C2_4
REMARK    3  A    between atoms: N2_8  and  C5_9
REMARK                            x       y       z     vdW  Elec       q    Type
REMARK                         _______ _______ _______ _____ _____    ______ ____
ROOT
ATOM      1  C2  UNL     1      21.844   4.118  33.574  0.00  0.00    +0.100 C 
ATOM      2  C3  UNL     1      21.007   2.900  34.017  0.00  0.00    +0.120 C 
ATOM      3  C4  UNL     1      20.957   2.075  32.793  0.00  0.00    +0.222 C 
ATOM      4  O2  UNL     1      20.416   0.937  32.748  0.00  0.00    -0.275 OA
ATOM      5  N2  UNL     1      21.496   2.731  31.657  0.00  0.00    -0.270 N 
ATOM      6  C11 UNL     1      21.872   4.086  32.030  0.00  0.00    +0.136 C 
ENDROOT
BRANCH   5   7
ATOM      7  C5  UNL     1      21.609   2.185  30.327  0.00  0.00    +0.038 A 
ATOM      8  C6  UNL     1      21.222   2.940  29.205  0.00  0.00    +0.023 A 
ATOM      9  C7  UNL     1      21.322   2.399  27.919  0.00  0.00    +0.003 A 
ATOM     10  C8  UNL     1      21.801   1.100  27.740  0.00  0.00    +0.020 A 
ATOM     11  C9  UNL     1      22.177   0.334  28.848  0.00  0.00    +0.043 A 
ATOM     12 CL1  UNL     1      22.771  -1.301  28.623  0.00  0.00    -0.083 Cl
ATOM     13  C10 UNL     1      22.076   0.872  30.136  0.00  0.00    +0.043 A 
ENDBRANCH   5   7
BRANCH   1  16
ATOM     14  O1  UNL     1      23.213   5.916  35.293  0.00  0.00    -0.268 OA
ATOM     15  C1  UNL     1      22.048   6.246  34.939  0.00  0.00    +0.264 C 
ATOM     16  N1  UNL     1      21.292   5.384  34.072  0.00  0.00    -0.305 N 
ATOM     17  H1  UNL     1      20.315   5.652  33.820  0.00  0.00    +0.149 HD
BRANCH  15  18
ATOM     18  C12 UNL     1      21.492   7.521  35.427  0.00  0.00    +0.147 A 
ATOM     19  C13 UNL     1      21.865   8.807  35.015  0.00  0.00    +0.057 A 
ATOM     20  C14 UNL     1      21.019   9.613  35.739  0.00  0.00    +0.040 A 
ATOM     21  N3  UNL     1      20.240   8.875  36.490  0.00  0.00    -0.268 N 
ATOM     22  N4  UNL     1      20.460   7.588  36.307  0.00  0.00    -0.166 NA
ATOM     23  C15 UNL     1      19.100   9.575  37.022  0.00  0.00    +0.144 C 
ATOM     24  C16 UNL     1      19.335  11.034  36.548  0.00  0.00    +0.029 C 
ATOM     25  C17 UNL     1      20.589  11.018  35.629  0.00  0.00    +0.057 C 
ENDBRANCH  15  18
ENDBRANCH   1  16
TORSDOF 3
ENDMDL
MODEL 7
REMARK VINA RESULT:    -5.908      9.727     12.663
REMARK INTER + INTRA:          -7.440
REMARK INTER:                  -6.952
REMARK INTRA:                  -0.488
REMARK UNBOUND:                -0.496
REMARK  Name = /home/qwerty/github/datacon2025hack/step_04_hit_selection/docking/ligands/lig_745.pdb
REMARK  3 active torsions:
REMARK  status: ('A' for Active; 'I' for Inactive)
REMARK    1  A    between atoms: C1_2  and  C12_17
REMARK    2  A    between atoms: N1_3  and  C2_4
REMARK    3  A    between atoms: N2_8  and  C5_9
REMARK                            x       y       z     vdW  Elec       q    Type
REMARK                         _______ _______ _______ _____ _____    ______ ____
ROOT
ATOM      1  C2  UNL     1      11.966   3.279  21.211  0.00  0.00    +0.100 C 
ATOM      2  C3  UNL     1      10.453   3.013  21.081  0.00  0.00    +0.120 C 
ATOM      3  C4  UNL     1       9.876   4.372  21.123  0.00  0.00    +0.222 C 
ATOM      4  O2  UNL     1       8.647   4.607  20.974  0.00  0.00    -0.275 OA
ATOM      5  N2  UNL     1      10.832   5.371  21.438  0.00  0.00    -0.270 N 
ATOM      6  C11 UNL     1      12.109   4.732  21.713  0.00  0.00    +0.136 C 
ENDROOT
BRANCH   5   7
ATOM      7  C5  UNL     1      10.587   6.790  21.534  0.00  0.00    +0.038 A 
ATOM      8  C6  UNL     1      10.010   7.343  22.692  0.00  0.00    +0.023 A 
ATOM      9  C7  UNL     1       9.763   8.716  22.773  0.00  0.00    +0.003 A 
ATOM     10  C8  UNL     1      10.082   9.551  21.700  0.00  0.00    +0.020 A 
ATOM     11  C9  UNL     1      10.643   9.012  20.538  0.00  0.00    +0.043 A 
ATOM     12 CL1  UNL     1      11.036  10.060  19.187  0.00  0.00    -0.083 Cl
ATOM     13  C10 UNL     1      10.890   7.637  20.454  0.00  0.00    +0.043 A 
ENDBRANCH   5   7
BRANCH   1  16
ATOM     14  O1  UNL     1      13.795   1.261  20.406  0.00  0.00    -0.268 OA
ATOM     15  C1  UNL     1      13.541   1.337  21.639  0.00  0.00    +0.264 C 
ATOM     16  N1  UNL     1      12.622   2.331  22.121  0.00  0.00    -0.305 N 
ATOM     17  H1  UNL     1      12.392   2.356  23.139  0.00  0.00    +0.149 HD
BRANCH  15  18
ATOM     18  C12 UNL     1      14.204   0.396  22.560  0.00  0.00    +0.147 A 
ATOM     19  C13 UNL     1      13.699  -0.076  23.779  0.00  0.00    +0.057 A 
ATOM     20  C14 UNL     1      14.681  -0.944  24.196  0.00  0.00    +0.040 A 
ATOM     21  N3  UNL     1      15.649  -0.972  23.315  0.00  0.00    -0.268 N 
ATOM     22  N4  UNL     1      15.389  -0.203  22.277  0.00  0.00    -0.166 NA
ATOM     23  C15 UNL     1      16.553  -2.083  23.469  0.00  0.00    +0.144 C 
ATOM     24  C16 UNL     1      16.040  -2.772  24.762  0.00  0.00    +0.029 C 
ATOM     25  C17 UNL     1      14.741  -2.032  25.188  0.00  0.00    +0.057 C 
ENDBRANCH  15  18
ENDBRANCH   1  16
TORSDOF 3
ENDMDL
MODEL 8
REMARK VINA RESULT:    -5.811     11.754     14.296
REMARK INTER + INTRA:          -7.326
REMARK INTER:                  -7.468
REMARK INTRA:                   0.141
REMARK UNBOUND:                -0.496
REMARK  Name = /home/qwerty/github/datacon2025hack/step_04_hit_selection/docking/ligands/lig_745.pdb
REMARK  3 active torsions:
REMARK  status: ('A' for Active; 'I' for Inactive)
REMARK    1  A    between atoms: C1_2  and  C12_17
REMARK    2  A    between atoms: N1_3  and  C2_4
REMARK    3  A    between atoms: N2_8  and  C5_9
REMARK                            x       y       z     vdW  Elec       q    Type
REMARK                         _______ _______ _______ _____ _____    ______ ____
ROOT
ATOM      1  C2  UNL     1      20.270   8.560  37.296  0.00  0.00    +0.100 C 
ATOM      2  C3  UNL     1      19.629   7.281  36.720  0.00  0.00    +0.120 C 
ATOM      3  C4  UNL     1      20.640   6.816  35.749  0.00  0.00    +0.222 C 
ATOM      4  O2  UNL     1      20.534   5.741  35.099  0.00  0.00    -0.275 OA
ATOM      5  N2  UNL     1      21.695   7.745  35.558  0.00  0.00    -0.270 N 
ATOM      6  C11 UNL     1      21.414   8.943  36.333  0.00  0.00    +0.136 C 
ENDROOT
BRANCH   5   7
ATOM      7  C5  UNL     1      22.839   7.575  34.695  0.00  0.00    +0.038 A 
ATOM      8  C6  UNL     1      23.661   6.438  34.806  0.00  0.00    +0.023 A 
ATOM      9  C7  UNL     1      24.775   6.286  33.976  0.00  0.00    +0.003 A 
ATOM     10  C8  UNL     1      25.085   7.267  33.032  0.00  0.00    +0.020 A 
ATOM     11  C9  UNL     1      24.285   8.408  32.920  0.00  0.00    +0.043 A 
ATOM     12 CL1  UNL     1      24.680   9.644  31.740  0.00  0.00    -0.083 Cl
ATOM     13  C10 UNL     1      23.169   8.564  33.751  0.00  0.00    +0.043 A 
ENDBRANCH   5   7
BRANCH   1  16
ATOM     14  O1  UNL     1      18.899   9.799  35.141  0.00  0.00    -0.268 OA
ATOM     15  C1  UNL     1      18.643  10.229  36.299  0.00  0.00    +0.264 C 
ATOM     16  N1  UNL     1      19.301   9.653  37.439  0.00  0.00    -0.305 N 
ATOM     17  H1  UNL     1      19.108  10.046  38.386  0.00  0.00    +0.149 HD
BRANCH  15  18
ATOM     18  C12 UNL     1      17.662  11.320  36.450  0.00  0.00    +0.147 A 
ATOM     19  C13 UNL     1      17.767  12.615  35.926  0.00  0.00    +0.057 A 
ATOM     20  C14 UNL     1      16.583  13.195  36.318  0.00  0.00    +0.040 A 
ATOM     21  N3  UNL     1      15.870  12.330  36.995  0.00  0.00    -0.268 N 
ATOM     22  N4  UNL     1      16.466  11.157  37.070  0.00  0.00    -0.166 NA
ATOM     23  C15 UNL     1      14.489  12.704  37.156  0.00  0.00    +0.144 C 
ATOM     24  C16 UNL     1      14.434  14.118  36.518  0.00  0.00    +0.029 C 
ATOM     25  C17 UNL     1      15.834  14.392  35.898  0.00  0.00    +0.057 C 
ENDBRANCH  15  18
ENDBRANCH   1  16
TORSDOF 3
ENDMDL
MODEL 9
REMARK VINA RESULT:    -5.662      4.783      7.794
REMARK INTER + INTRA:          -7.151
REMARK INTER:                  -6.684
REMARK INTRA:                  -0.467
REMARK UNBOUND:                -0.496
REMARK  Name = /home/qwerty/github/datacon2025hack/step_04_hit_selection/docking/ligands/lig_745.pdb
REMARK  3 active torsions:
REMARK  status: ('A' for Active; 'I' for Inactive)
REMARK    1  A    between atoms: C1_2  and  C12_17
REMARK    2  A    between atoms: N1_3  and  C2_4
REMARK    3  A    between atoms: N2_8  and  C5_9
REMARK                            x       y       z     vdW  Elec       q    Type
REMARK                         _______ _______ _______ _____ _____    ______ ____
ROOT
ATOM      1  C2  UNL     1      19.474   1.029  24.479  0.00  0.00    +0.100 C 
ATOM      2  C3  UNL     1      20.322   2.249  24.067  0.00  0.00    +0.120 C 
ATOM      3  C4  UNL     1      21.153   2.490  25.264  0.00  0.00    +0.222 C 
ATOM      4  O2  UNL     1      22.051   3.373  25.317  0.00  0.00    -0.275 OA
ATOM      5  N2  UNL     1      20.777   1.689  26.373  0.00  0.00    -0.270 N 
ATOM      6  C11 UNL     1      19.601   0.910  26.014  0.00  0.00    +0.136 C 
ENDROOT
BRANCH   5   7
ATOM      7  C5  UNL     1      21.405   1.675  27.671  0.00  0.00    +0.038 A 
ATOM      8  C6  UNL     1      20.814   2.338  28.762  0.00  0.00    +0.023 A 
ATOM      9  C7  UNL     1      21.434   2.332  30.015  0.00  0.00    +0.003 A 
ATOM     10  C8  UNL     1      22.652   1.672  30.191  0.00  0.00    +0.020 A 
ATOM     11  C9  UNL     1      23.258   1.022  29.112  0.00  0.00    +0.043 A 
ATOM     12 CL1  UNL     1      24.792   0.200  29.331  0.00  0.00    -0.083 Cl
ATOM     13  C10 UNL     1      22.639   1.027  27.856  0.00  0.00    +0.043 A 
ENDBRANCH   5   7
BRANCH   1  16
ATOM     14  O1  UNL     1      17.675  -1.142  24.137  0.00  0.00    -0.268 OA
ATOM     15  C1  UNL     1      17.218   0.014  23.918  0.00  0.00    +0.264 C 
ATOM     16  N1  UNL     1      18.070   1.161  24.068  0.00  0.00    -0.305 N 
ATOM     17  H1  UNL     1      17.689   2.107  23.847  0.00  0.00    +0.149 HD
BRANCH  15  18
ATOM     18  C12 UNL     1      15.807   0.154  23.516  0.00  0.00    +0.147 A 
ATOM     19  C13 UNL     1      14.686   0.040  24.348  0.00  0.00    +0.057 A 
ATOM     20  C14 UNL     1      13.644   0.301  23.489  0.00  0.00    +0.040 A 
ATOM     21  N3  UNL     1      14.111   0.541  22.289  0.00  0.00    -0.268 N 
ATOM     22  N4  UNL     1      15.428   0.504  22.260  0.00  0.00    -0.166 NA
ATOM     23  C15 UNL     1      13.160   1.156  21.400  0.00  0.00    +0.144 C 
ATOM     24  C16 UNL     1      11.860   1.184  22.246  0.00  0.00    +0.029 C 
ATOM     25  C17 UNL     1      12.230   0.672  23.667  0.00  0.00    +0.057 C 
ENDBRANCH  15  18
ENDBRANCH   1  16
TORSDOF 3
ENDMDL
