MODEL 1
REMARK VINA RESULT:    -6.532      0.000      0.000
REMARK INTER + INTRA:          -8.400
REMARK INTER:                  -7.677
REMARK INTRA:                  -0.723
REMARK UNBOUND:                -0.723
REMARK  Name = /home/qwerty/github/datacon2025hack/step_04_hit_selection/docking/ligands/lig_290.pdb
REMARK  3 active torsions:
REMARK  status: ('A' for Active; 'I' for Inactive)
REMARK    1  A    between atoms: C1_2  and  C14_20
REMARK    2  A    between atoms: N1_3  and  C2_4
REMARK    3  A    between atoms: C5_8  and  C6_10
REMARK                            x       y       z     vdW  Elec       q    Type
REMARK                         _______ _______ _______ _____ _____    ______ ____
ROOT
ATOM      1  C2  UNL     1      18.883   9.631  36.114  0.00  0.00    +0.076 C 
ATOM      2  C3  UNL     1      20.372  10.006  36.209  0.00  0.00    +0.041 C 
ATOM      3  C4  UNL     1      21.248   8.750  36.218  0.00  0.00    +0.110 C 
ATOM      4  N2  UNL     1      20.923   7.897  35.068  0.00  0.00    -0.296 N 
ATOM      5  C5  UNL     1      21.957   7.131  34.428  0.00  0.00    +0.267 C 
ATOM      6  O2  UNL     1      21.820   5.885  34.295  0.00  0.00    -0.268 OA
ATOM      7  C12 UNL     1      19.519   7.518  34.873  0.00  0.00    +0.110 C 
ATOM      8  C13 UNL     1      18.633   8.767  34.863  0.00  0.00    +0.041 C 
ENDROOT
BRANCH   5   9
ATOM      9  C6  UNL     1      23.159   7.789  33.886  0.00  0.00    +0.150 A 
ATOM     10  N3  UNL     1      24.421   7.318  34.026  0.00  0.00    -0.169 NA
ATOM     11  N4  UNL     1      25.219   8.080  33.287  0.00  0.00    -0.281 N 
ATOM     12  C7  UNL     1      24.477   9.041  32.716  0.00  0.00    +0.040 A 
ATOM     13  C8  UNL     1      23.193   8.900  33.067  0.00  0.00    +0.005 A 
ATOM     14  C9  UNL     1      22.256   9.433  32.057  0.00  0.00    +0.039 C 
ATOM     15  C10 UNL     1      23.210  10.113  31.041  0.00  0.00    +0.011 C 
ATOM     16  C11 UNL     1      24.658   9.702  31.409  0.00  0.00    +0.055 C 
ATOM     17  H7  UNL     1      26.224   7.870  33.097  0.00  0.00    +0.189 HD
ENDBRANCH   5   9
BRANCH   1  20
ATOM     18  O1  UNL     1      16.794  10.285  37.948  0.00  0.00    -0.276 OA
ATOM     19  C1  UNL     1      17.049  11.125  37.042  0.00  0.00    +0.216 C 
ATOM     20  N1  UNL     1      18.062  10.846  36.064  0.00  0.00    -0.312 N 
ATOM     21  H1  UNL     1      18.195  11.522  35.278  0.00  0.00    +0.149 HD
BRANCH  19  22
ATOM     22  C14 UNL     1      16.268  12.413  36.980  0.00  0.00    +0.075 C 
ATOM     23  C15 UNL     1      14.753  12.131  36.984  0.00  0.00    +0.013 C 
ATOM     24  C16 UNL     1      13.953  13.437  36.894  0.00  0.00    +0.001 C 
ATOM     25  C17 UNL     1      14.356  14.246  35.655  0.00  0.00    +0.000 C 
ATOM     26  C18 UNL     1      15.863  14.528  35.647  0.00  0.00    +0.001 C 
ATOM     27  C19 UNL     1      16.669  13.225  35.735  0.00  0.00    +0.013 C 
ENDBRANCH  19  22
ENDBRANCH   1  20
TORSDOF 3
ENDMDL
MODEL 2
REMARK VINA RESULT:    -6.240     15.570     16.820
REMARK INTER + INTRA:          -8.058
REMARK INTER:                  -7.330
REMARK INTRA:                  -0.728
REMARK UNBOUND:                -0.723
REMARK  Name = /home/qwerty/github/datacon2025hack/step_04_hit_selection/docking/ligands/lig_290.pdb
REMARK  3 active torsions:
REMARK  status: ('A' for Active; 'I' for Inactive)
REMARK    1  A    between atoms: C1_2  and  C14_20
REMARK    2  A    between atoms: N1_3  and  C2_4
REMARK    3  A    between atoms: C5_8  and  C6_10
REMARK                            x       y       z     vdW  Elec       q    Type
REMARK                         _______ _______ _______ _____ _____    ______ ____
ROOT
ATOM      1  C2  UNL     1      13.505   2.813  21.283  0.00  0.00    +0.076 C 
ATOM      2  C3  UNL     1      13.469   1.279  21.161  0.00  0.00    +0.041 C 
ATOM      3  C4  UNL     1      14.879   0.693  21.269  0.00  0.00    +0.110 C 
ATOM      4  N2  UNL     1      15.537   1.177  22.489  0.00  0.00    -0.296 N 
ATOM      5  C5  UNL     1      16.447   0.322  23.201  0.00  0.00    +0.267 C 
ATOM      6  O2  UNL     1      17.618   0.721  23.444  0.00  0.00    -0.268 OA
ATOM      7  C12 UNL     1      15.586   2.626  22.711  0.00  0.00    +0.110 C 
ATOM      8  C13 UNL     1      14.180   3.224  22.605  0.00  0.00    +0.041 C 
ENDROOT
BRANCH   5   9
ATOM      9  C6  UNL     1      16.018  -1.000  23.687  0.00  0.00    +0.150 A 
ATOM     10  N3  UNL     1      16.758  -2.131  23.592  0.00  0.00    -0.169 NA
ATOM     11  N4  UNL     1      16.124  -3.085  24.264  0.00  0.00    -0.281 N 
ATOM     12  C7  UNL     1      14.981  -2.574  24.747  0.00  0.00    +0.040 A 
ATOM     13  C8  UNL     1      14.874  -1.284  24.406  0.00  0.00    +0.005 A 
ATOM     14  C9  UNL     1      14.068  -0.498  25.362  0.00  0.00    +0.039 C 
ATOM     15  C10 UNL     1      13.523  -1.591  26.319  0.00  0.00    +0.011 C 
ATOM     16  C11 UNL     1      14.265  -2.912  25.992  0.00  0.00    +0.055 C 
ATOM     17  H7  UNL     1      16.528  -4.025  24.475  0.00  0.00    +0.189 HD
ENDBRANCH   5   9
BRANCH   1  20
ATOM     18  O1  UNL     1      12.738   5.194  19.906  0.00  0.00    -0.276 OA
ATOM     19  C1  UNL     1      11.824   4.541  20.479  0.00  0.00    +0.216 C 
ATOM     20  N1  UNL     1      12.142   3.353  21.220  0.00  0.00    -0.312 N 
ATOM     21  H1  UNL     1      11.378   2.878  21.752  0.00  0.00    +0.149 HD
BRANCH  19  22
ATOM     22  C14 UNL     1      10.399   5.027  20.398  0.00  0.00    +0.075 C 
ATOM     23  C15 UNL     1      10.322   6.536  20.700  0.00  0.00    +0.013 C 
ATOM     24  C16 UNL     1       8.871   7.031  20.647  0.00  0.00    +0.001 C 
ATOM     25  C17 UNL     1       7.981   6.235  21.609  0.00  0.00    +0.000 C 
ATOM     26  C18 UNL     1       8.056   4.733  21.313  0.00  0.00    +0.001 C 
ATOM     27  C19 UNL     1       9.505   4.231  21.367  0.00  0.00    +0.013 C 
ENDBRANCH  19  22
ENDBRANCH   1  20
TORSDOF 3
ENDMDL
MODEL 3
REMARK VINA RESULT:    -6.216     11.915     15.026
REMARK INTER + INTRA:          -8.030
REMARK INTER:                  -7.433
REMARK INTRA:                  -0.597
REMARK UNBOUND:                -0.723
REMARK  Name = /home/qwerty/github/datacon2025hack/step_04_hit_selection/docking/ligands/lig_290.pdb
REMARK  3 active torsions:
REMARK  status: ('A' for Active; 'I' for Inactive)
REMARK    1  A    between atoms: C1_2  and  C14_20
REMARK    2  A    between atoms: N1_3  and  C2_4
REMARK    3  A    between atoms: C5_8  and  C6_10
REMARK                            x       y       z     vdW  Elec       q    Type
REMARK                         _______ _______ _______ _____ _____    ______ ____
ROOT
ATOM      1  C2  UNL     1      21.268   5.368  23.002  0.00  0.00    +0.076 C 
ATOM      2  C3  UNL     1      20.329   6.587  23.037  0.00  0.00    +0.041 C 
ATOM      3  C4  UNL     1      20.651   7.553  21.894  0.00  0.00    +0.110 C 
ATOM      4  N2  UNL     1      20.649   6.839  20.611  0.00  0.00    -0.296 N 
ATOM      5  C5  UNL     1      20.201   7.505  19.420  0.00  0.00    +0.267 C 
ATOM      6  O2  UNL     1      20.953   7.553  18.409  0.00  0.00    -0.268 OA
ATOM      7  C12 UNL     1      21.486   5.639  20.495  0.00  0.00    +0.110 C 
ATOM      8  C13 UNL     1      21.173   4.665  21.634  0.00  0.00    +0.041 C 
ENDROOT
BRANCH   5   9
ATOM      9  C6  UNL     1      18.855   8.099  19.347  0.00  0.00    +0.150 A 
ATOM     10  N3  UNL     1      17.716   7.471  19.725  0.00  0.00    -0.169 NA
ATOM     11  N4  UNL     1      16.728   8.356  19.663  0.00  0.00    -0.281 N 
ATOM     12  C7  UNL     1      17.228   9.518  19.218  0.00  0.00    +0.040 A 
ATOM     13  C8  UNL     1      18.544   9.401  19.004  0.00  0.00    +0.005 A 
ATOM     14  C9  UNL     1      19.271  10.678  19.150  0.00  0.00    +0.039 C 
ATOM     15  C10 UNL     1      18.118  11.699  19.338  0.00  0.00    +0.011 C 
ATOM     16  C11 UNL     1      16.809  10.895  19.541  0.00  0.00    +0.055 C 
ATOM     17  H7  UNL     1      15.763   8.188  20.026  0.00  0.00    +0.189 HD
ENDBRANCH   5   9
BRANCH   1  20
ATOM     18  O1  UNL     1      22.981   4.624  25.162  0.00  0.00    -0.276 OA
ATOM     19  C1  UNL     1      21.819   4.132  25.152  0.00  0.00    +0.216 C 
ATOM     20  N1  UNL     1      20.917   4.434  24.078  0.00  0.00    -0.312 N 
ATOM     21  H1  UNL     1      19.991   3.948  24.053  0.00  0.00    +0.149 HD
BRANCH  19  22
ATOM     22  C14 UNL     1      21.394   3.208  26.265  0.00  0.00    +0.075 C 
ATOM     23  C15 UNL     1      22.593   2.853  27.166  0.00  0.00    +0.013 C 
ATOM     24  C16 UNL     1      22.172   1.891  28.284  0.00  0.00    +0.001 C 
ATOM     25  C17 UNL     1      21.528   0.624  27.707  0.00  0.00    +0.000 C 
ATOM     26  C18 UNL     1      20.335   0.972  26.809  0.00  0.00    +0.001 C 
ATOM     27  C19 UNL     1      20.750   1.933  25.687  0.00  0.00    +0.013 C 
ENDBRANCH  19  22
ENDBRANCH   1  20
TORSDOF 3
ENDMDL
MODEL 4
REMARK VINA RESULT:    -6.153      2.475      3.183
REMARK INTER + INTRA:          -7.955
REMARK INTER:                  -7.239
REMARK INTRA:                  -0.717
REMARK UNBOUND:                -0.723
REMARK  Name = /home/qwerty/github/datacon2025hack/step_04_hit_selection/docking/ligands/lig_290.pdb
REMARK  3 active torsions:
REMARK  status: ('A' for Active; 'I' for Inactive)
REMARK    1  A    between atoms: C1_2  and  C14_20
REMARK    2  A    between atoms: N1_3  and  C2_4
REMARK    3  A    between atoms: C5_8  and  C6_10
REMARK                            x       y       z     vdW  Elec       q    Type
REMARK                         _______ _______ _______ _____ _____    ______ ____
ROOT
ATOM      1  C2  UNL     1      19.534   9.271  36.812  0.00  0.00    +0.076 C 
ATOM      2  C3  UNL     1      20.340   9.287  35.500  0.00  0.00    +0.041 C 
ATOM      3  C4  UNL     1      21.803   8.914  35.757  0.00  0.00    +0.110 C 
ATOM      4  N2  UNL     1      21.881   7.642  36.486  0.00  0.00    -0.296 N 
ATOM      5  C5  UNL     1      22.967   6.736  36.233  0.00  0.00    +0.267 C 
ATOM      6  O2  UNL     1      23.684   6.337  37.190  0.00  0.00    -0.268 OA
ATOM      7  C12 UNL     1      21.114   7.519  37.731  0.00  0.00    +0.110 C 
ATOM      8  C13 UNL     1      19.648   7.890  37.486  0.00  0.00    +0.041 C 
ENDROOT
BRANCH   5   9
ATOM      9  C6  UNL     1      23.229   6.232  34.874  0.00  0.00    +0.150 A 
ATOM     10  N3  UNL     1      24.456   6.152  34.308  0.00  0.00    -0.169 NA
ATOM     11  N4  UNL     1      24.326   5.516  33.149  0.00  0.00    -0.281 N 
ATOM     12  C7  UNL     1      23.028   5.228  32.969  0.00  0.00    +0.040 A 
ATOM     13  C8  UNL     1      22.311   5.661  34.014  0.00  0.00    +0.005 A 
ATOM     14  C9  UNL     1      21.080   4.876  34.236  0.00  0.00    +0.039 C 
ATOM     15  C10 UNL     1      21.054   3.937  33.002  0.00  0.00    +0.011 C 
ATOM     16  C11 UNL     1      22.418   4.075  32.279  0.00  0.00    +0.055 C 
ATOM     17  H7  UNL     1      25.126   5.192  32.561  0.00  0.00    +0.189 HD
ENDBRANCH   5   9
BRANCH   1  20
ATOM     18  O1  UNL     1      18.408  11.894  36.818  0.00  0.00    -0.276 OA
ATOM     19  C1  UNL     1      17.638  10.938  36.528  0.00  0.00    +0.216 C 
ATOM     20  N1  UNL     1      18.128   9.589  36.540  0.00  0.00    -0.312 N 
ATOM     21  H1  UNL     1      17.450   8.811  36.376  0.00  0.00    +0.149 HD
BRANCH  19  22
ATOM     22  C14 UNL     1      16.196  11.220  36.190  0.00  0.00    +0.075 C 
ATOM     23  C15 UNL     1      15.605  12.263  37.157  0.00  0.00    +0.013 C 
ATOM     24  C16 UNL     1      14.130  12.534  36.835  0.00  0.00    +0.001 C 
ATOM     25  C17 UNL     1      13.313  11.236  36.865  0.00  0.00    +0.000 C 
ATOM     26  C18 UNL     1      13.898  10.195  35.904  0.00  0.00    +0.001 C 
ATOM     27  C19 UNL     1      15.374   9.918  36.222  0.00  0.00    +0.013 C 
ENDBRANCH  19  22
ENDBRANCH   1  20
TORSDOF 3
ENDMDL
MODEL 5
REMARK VINA RESULT:    -6.144      5.619      9.209
REMARK INTER + INTRA:          -7.944
REMARK INTER:                  -7.366
REMARK INTRA:                  -0.578
REMARK UNBOUND:                -0.723
REMARK  Name = /home/qwerty/github/datacon2025hack/step_04_hit_selection/docking/ligands/lig_290.pdb
REMARK  3 active torsions:
REMARK  status: ('A' for Active; 'I' for Inactive)
REMARK    1  A    between atoms: C1_2  and  C14_20
REMARK    2  A    between atoms: N1_3  and  C2_4
REMARK    3  A    between atoms: C5_8  and  C6_10
REMARK                            x       y       z     vdW  Elec       q    Type
REMARK                         _______ _______ _______ _____ _____    ______ ____
ROOT
ATOM      1  C2  UNL     1      12.570  13.587  32.727  0.00  0.00    +0.076 C 
ATOM      2  C3  UNL     1      13.495  12.377  32.952  0.00  0.00    +0.041 C 
ATOM      3  C4  UNL     1      14.751  12.791  33.723  0.00  0.00    +0.110 C 
ATOM      4  N2  UNL     1      14.380  13.493  34.958  0.00  0.00    -0.296 N 
ATOM      5  C5  UNL     1      15.187  13.344  36.138  0.00  0.00    +0.267 C 
ATOM      6  O2  UNL     1      15.646  14.368  36.714  0.00  0.00    -0.268 OA
ATOM      7  C12 UNL     1      13.470  14.638  34.847  0.00  0.00    +0.110 C 
ATOM      8  C13 UNL     1      12.209  14.236  34.077  0.00  0.00    +0.041 C 
ENDROOT
BRANCH   5   9
ATOM      9  C6  UNL     1      15.453  12.013  36.708  0.00  0.00    +0.150 A 
ATOM     10  N3  UNL     1      14.526  11.035  36.843  0.00  0.00    -0.169 NA
ATOM     11  N4  UNL     1      15.154   9.937  37.248  0.00  0.00    -0.281 N 
ATOM     12  C7  UNL     1      16.455  10.227  37.403  0.00  0.00    +0.040 A 
ATOM     13  C8  UNL     1      16.683  11.507  37.083  0.00  0.00    +0.005 A 
ATOM     14  C9  UNL     1      18.057  11.747  36.600  0.00  0.00    +0.039 C 
ATOM     15  C10 UNL     1      18.739  10.373  36.835  0.00  0.00    +0.011 C 
ATOM     16  C11 UNL     1      17.630   9.356  37.206  0.00  0.00    +0.055 C 
ATOM     17  H7  UNL     1      14.712   8.993  37.306  0.00  0.00    +0.189 HD
ENDBRANCH   5   9
BRANCH   1  20
ATOM     18  O1  UNL     1      11.790  14.444  30.118  0.00  0.00    -0.276 OA
ATOM     19  C1  UNL     1      11.041  13.611  30.698  0.00  0.00    +0.216 C 
ATOM     20  N1  UNL     1      11.353  13.163  32.026  0.00  0.00    -0.312 N 
ATOM     21  H1  UNL     1      10.673  12.537  32.513  0.00  0.00    +0.149 HD
BRANCH  19  22
ATOM     22  C14 UNL     1       9.806  13.105  29.996  0.00  0.00    +0.075 C 
ATOM     23  C15 UNL     1       9.740  11.567  30.053  0.00  0.00    +0.013 C 
ATOM     24  C16 UNL     1       8.499  11.046  29.316  0.00  0.00    +0.001 C 
ATOM     25  C17 UNL     1       8.471  11.541  27.865  0.00  0.00    +0.000 C 
ATOM     26  C18 UNL     1       8.538  13.072  27.804  0.00  0.00    +0.001 C 
ATOM     27  C19 UNL     1       9.778  13.599  28.537  0.00  0.00    +0.013 C 
ENDBRANCH  19  22
ENDBRANCH   1  20
TORSDOF 3
ENDMDL
MODEL 6
REMARK VINA RESULT:    -6.095      4.520      9.030
REMARK INTER + INTRA:          -7.887
REMARK INTER:                  -7.175
REMARK INTRA:                  -0.712
REMARK UNBOUND:                -0.723
REMARK  Name = /home/qwerty/github/datacon2025hack/step_04_hit_selection/docking/ligands/lig_290.pdb
REMARK  3 active torsions:
REMARK  status: ('A' for Active; 'I' for Inactive)
REMARK    1  A    between atoms: C1_2  and  C14_20
REMARK    2  A    between atoms: N1_3  and  C2_4
REMARK    3  A    between atoms: C5_8  and  C6_10
REMARK                            x       y       z     vdW  Elec       q    Type
REMARK                         _______ _______ _______ _____ _____    ______ ____
ROOT
ATOM      1  C2  UNL     1      22.177   4.709  32.393  0.00  0.00    +0.076 C 
ATOM      2  C3  UNL     1      20.949   5.104  33.232  0.00  0.00    +0.041 C 
ATOM      3  C4  UNL     1      21.328   5.263  34.707  0.00  0.00    +0.110 C 
ATOM      4  N2  UNL     1      22.462   6.186  34.842  0.00  0.00    -0.296 N 
ATOM      5  C5  UNL     1      22.553   7.048  35.988  0.00  0.00    +0.267 C 
ATOM      6  O2  UNL     1      23.592   7.032  36.702  0.00  0.00    -0.268 OA
ATOM      7  C12 UNL     1      23.666   5.911  34.050  0.00  0.00    +0.110 C 
ATOM      8  C13 UNL     1      23.298   5.750  32.572  0.00  0.00    +0.041 C 
ENDROOT
BRANCH   5   9
ATOM      9  C6  UNL     1      21.463   7.982  36.319  0.00  0.00    +0.150 A 
ATOM     10  N3  UNL     1      20.949   8.155  37.560  0.00  0.00    -0.169 NA
ATOM     11  N4  UNL     1      20.099   9.174  37.506  0.00  0.00    -0.281 N 
ATOM     12  C7  UNL     1      20.049   9.617  36.241  0.00  0.00    +0.040 A 
ATOM     13  C8  UNL     1      20.877   8.901  35.470  0.00  0.00    +0.005 A 
ATOM     14  C9  UNL     1      21.381   9.656  34.305  0.00  0.00    +0.039 C 
ATOM     15  C10 UNL     1      20.567  10.974  34.382  0.00  0.00    +0.011 C 
ATOM     16  C11 UNL     1      19.827  10.988  35.744  0.00  0.00    +0.055 C 
ATOM     17  H7  UNL     1      19.657   9.617  38.342  0.00  0.00    +0.189 HD
ENDBRANCH   5   9
BRANCH   1  20
ATOM     18  O1  UNL     1      22.188   2.299  30.862  0.00  0.00    -0.276 OA
ATOM     19  C1  UNL     1      21.801   3.349  30.280  0.00  0.00    +0.216 C 
ATOM     20  N1  UNL     1      21.804   4.603  30.978  0.00  0.00    -0.312 N 
ATOM     21  H1  UNL     1      21.557   5.469  30.447  0.00  0.00    +0.149 HD
BRANCH  19  22
ATOM     22  C14 UNL     1      21.357   3.281  28.840  0.00  0.00    +0.075 C 
ATOM     23  C15 UNL     1      22.188   2.241  28.064  0.00  0.00    +0.013 C 
ATOM     24  C16 UNL     1      21.759   2.187  26.592  0.00  0.00    +0.001 C 
ATOM     25  C17 UNL     1      21.864   3.570  25.937  0.00  0.00    +0.000 C 
ATOM     26  C18 UNL     1      21.039   4.609  26.707  0.00  0.00    +0.001 C 
ATOM     27  C19 UNL     1      21.465   4.668  28.180  0.00  0.00    +0.013 C 
ENDBRANCH  19  22
ENDBRANCH   1  20
TORSDOF 3
ENDMDL
MODEL 7
REMARK VINA RESULT:    -6.071     12.180     15.393
REMARK INTER + INTRA:          -7.859
REMARK INTER:                  -7.143
REMARK INTRA:                  -0.716
REMARK UNBOUND:                -0.723
REMARK  Name = /home/qwerty/github/datacon2025hack/step_04_hit_selection/docking/ligands/lig_290.pdb
REMARK  3 active torsions:
REMARK  status: ('A' for Active; 'I' for Inactive)
REMARK    1  A    between atoms: C1_2  and  C14_20
REMARK    2  A    between atoms: N1_3  and  C2_4
REMARK    3  A    between atoms: C5_8  and  C6_10
REMARK                            x       y       z     vdW  Elec       q    Type
REMARK                         _______ _______ _______ _____ _____    ______ ____
ROOT
ATOM      1  C2  UNL     1      21.747  10.436  19.776  0.00  0.00    +0.076 C 
ATOM      2  C3  UNL     1      23.003  10.609  20.648  0.00  0.00    +0.041 C 
ATOM      3  C4  UNL     1      23.680  11.952  20.364  0.00  0.00    +0.110 C 
ATOM      4  N2  UNL     1      22.711  13.046  20.496  0.00  0.00    -0.296 N 
ATOM      5  C5  UNL     1      23.135  14.324  20.998  0.00  0.00    +0.267 C 
ATOM      6  O2  UNL     1      22.918  15.365  20.321  0.00  0.00    -0.268 OA
ATOM      7  C12 UNL     1      21.463  12.951  19.729  0.00  0.00    +0.110 C 
ATOM      8  C13 UNL     1      20.776  11.610  20.005  0.00  0.00    +0.041 C 
ENDROOT
BRANCH   5   9
ATOM      9  C6  UNL     1      23.784  14.441  22.315  0.00  0.00    +0.150 A 
ATOM     10  N3  UNL     1      24.827  15.260  22.587  0.00  0.00    -0.169 NA
ATOM     11  N4  UNL     1      25.046  15.213  23.896  0.00  0.00    -0.281 N 
ATOM     12  C7  UNL     1      24.176  14.348  24.440  0.00  0.00    +0.040 A 
ATOM     13  C8  UNL     1      23.378  13.842  23.491  0.00  0.00    +0.005 A 
ATOM     14  C9  UNL     1      22.055  13.434  24.006  0.00  0.00    +0.039 C 
ATOM     15  C10 UNL     1      22.218  13.623  25.537  0.00  0.00    +0.011 C 
ATOM     16  C11 UNL     1      23.553  14.373  25.777  0.00  0.00    +0.055 C 
ATOM     17  H7  UNL     1      25.702  15.846  24.408  0.00  0.00    +0.189 HD
ENDBRANCH   5   9
BRANCH   1  20
ATOM     18  O1  UNL     1      22.357   7.921  18.569  0.00  0.00    -0.276 OA
ATOM     19  C1  UNL     1      21.471   7.929  19.467  0.00  0.00    +0.216 C 
ATOM     20  N1  UNL     1      21.088   9.164  20.092  0.00  0.00    -0.312 N 
ATOM     21  H1  UNL     1      20.295   9.153  20.772  0.00  0.00    +0.149 HD
BRANCH  19  22
ATOM     22  C14 UNL     1      20.802   6.638  19.864  0.00  0.00    +0.075 C 
ATOM     23  C15 UNL     1      19.460   6.915  20.569  0.00  0.00    +0.013 C 
ATOM     24  C16 UNL     1      18.788   5.605  20.999  0.00  0.00    +0.001 C 
ATOM     25  C17 UNL     1      19.716   4.778  21.897  0.00  0.00    +0.000 C 
ATOM     26  C18 UNL     1      21.054   4.500  21.199  0.00  0.00    +0.001 C 
ATOM     27  C19 UNL     1      21.732   5.807  20.768  0.00  0.00    +0.013 C 
ENDBRANCH  19  22
ENDBRANCH   1  20
TORSDOF 3
ENDMDL
MODEL 8
REMARK VINA RESULT:    -6.038     14.456     15.593
REMARK INTER + INTRA:          -7.821
REMARK INTER:                  -7.171
REMARK INTRA:                  -0.649
REMARK UNBOUND:                -0.723
REMARK  Name = /home/qwerty/github/datacon2025hack/step_04_hit_selection/docking/ligands/lig_290.pdb
REMARK  3 active torsions:
REMARK  status: ('A' for Active; 'I' for Inactive)
REMARK    1  A    between atoms: C1_2  and  C14_20
REMARK    2  A    between atoms: N1_3  and  C2_4
REMARK    3  A    between atoms: C5_8  and  C6_10
REMARK                            x       y       z     vdW  Elec       q    Type
REMARK                         _______ _______ _______ _____ _____    ______ ____
ROOT
ATOM      1  C2  UNL     1       8.738   8.999  24.775  0.00  0.00    +0.076 C 
ATOM      2  C3  UNL     1       9.740   7.850  24.561  0.00  0.00    +0.041 C 
ATOM      3  C4  UNL     1       9.207   6.850  23.532  0.00  0.00    +0.110 C 
ATOM      4  N2  UNL     1       8.829   7.547  22.296  0.00  0.00    -0.296 N 
ATOM      5  C5  UNL     1       9.005   6.900  21.025  0.00  0.00    +0.267 C 
ATOM      6  O2  UNL     1       8.025   6.786  20.241  0.00  0.00    -0.268 OA
ATOM      7  C12 UNL     1       7.906   8.682  22.405  0.00  0.00    +0.110 C 
ATOM      8  C13 UNL     1       8.429   9.690  23.433  0.00  0.00    +0.041 C 
ENDROOT
BRANCH   5   9
ATOM      9  C6  UNL     1      10.327   6.403  20.607  0.00  0.00    +0.150 A 
ATOM     10  N3  UNL     1      11.425   7.179  20.449  0.00  0.00    -0.169 NA
ATOM     11  N4  UNL     1      12.457   6.376  20.216  0.00  0.00    -0.281 N 
ATOM     12  C7  UNL     1      12.011   5.110  20.192  0.00  0.00    +0.040 A 
ATOM     13  C8  UNL     1      10.693   5.083  20.424  0.00  0.00    +0.005 A 
ATOM     14  C9  UNL     1      10.240   3.821  21.044  0.00  0.00    +0.039 C 
ATOM     15  C10 UNL     1      11.525   2.952  21.011  0.00  0.00    +0.011 C 
ATOM     16  C11 UNL     1      12.703   3.873  20.601  0.00  0.00    +0.055 C 
ATOM     17  H7  UNL     1      13.453   6.688  20.189  0.00  0.00    +0.189 HD
ENDBRANCH   5   9
BRANCH   1  20
ATOM     18  O1  UNL     1       7.547   9.697  27.274  0.00  0.00    -0.276 OA
ATOM     19  C1  UNL     1       8.646  10.245  26.987  0.00  0.00    +0.216 C 
ATOM     20  N1  UNL     1       9.284   9.968  25.732  0.00  0.00    -0.312 N 
ATOM     21  H1  UNL     1      10.151  10.498  25.485  0.00  0.00    +0.149 HD
BRANCH  19  22
ATOM     22  C14 UNL     1       9.274  11.210  27.962  0.00  0.00    +0.075 C 
ATOM     23  C15 UNL     1       8.304  12.362  28.287  0.00  0.00    +0.013 C 
ATOM     24  C16 UNL     1       8.947  13.361  29.257  0.00  0.00    +0.001 C 
ATOM     25  C17 UNL     1      10.270  13.900  28.696  0.00  0.00    +0.000 C 
ATOM     26  C18 UNL     1      11.237  12.756  28.371  0.00  0.00    +0.001 C 
ATOM     27  C19 UNL     1      10.600  11.754  27.399  0.00  0.00    +0.013 C 
ENDBRANCH  19  22
ENDBRANCH   1  20
TORSDOF 3
ENDMDL
MODEL 9
REMARK VINA RESULT:    -6.012     14.781     15.776
REMARK INTER + INTRA:          -7.790
REMARK INTER:                  -7.158
REMARK INTRA:                  -0.632
REMARK UNBOUND:                -0.723
REMARK  Name = /home/qwerty/github/datacon2025hack/step_04_hit_selection/docking/ligands/lig_290.pdb
REMARK  3 active torsions:
REMARK  status: ('A' for Active; 'I' for Inactive)
REMARK    1  A    between atoms: C1_2  and  C14_20
REMARK    2  A    between atoms: N1_3  and  C2_4
REMARK    3  A    between atoms: C5_8  and  C6_10
REMARK                            x       y       z     vdW  Elec       q    Type
REMARK                         _______ _______ _______ _____ _____    ______ ____
ROOT
ATOM      1  C2  UNL     1       8.663   7.670  24.550  0.00  0.00    +0.076 C 
ATOM      2  C3  UNL     1       9.385   6.330  24.778  0.00  0.00    +0.041 C 
ATOM      3  C4  UNL     1       8.782   5.232  23.897  0.00  0.00    +0.110 C 
ATOM      4  N2  UNL     1       8.760   5.664  22.494  0.00  0.00    -0.296 N 
ATOM      5  C5  UNL     1       8.958   4.702  21.444  0.00  0.00    +0.267 C 
ATOM      6  O2  UNL     1       8.100   4.594  20.526  0.00  0.00    -0.268 OA
ATOM      7  C12 UNL     1       8.126   6.950  22.184  0.00  0.00    +0.110 C 
ATOM      8  C13 UNL     1       8.721   8.056  23.060  0.00  0.00    +0.041 C 
ENDROOT
BRANCH   5   9
ATOM      9  C6  UNL     1      10.170   3.867  21.402  0.00  0.00    +0.150 A 
ATOM     10  N3  UNL     1      10.195   2.536  21.651  0.00  0.00    -0.169 NA
ATOM     11  N4  UNL     1      11.418   2.097  21.374  0.00  0.00    -0.281 N 
ATOM     12  C7  UNL     1      12.166   3.143  20.990  0.00  0.00    +0.040 A 
ATOM     13  C8  UNL     1      11.431   4.262  20.999  0.00  0.00    +0.005 A 
ATOM     14  C9  UNL     1      11.905   5.274  20.033  0.00  0.00    +0.039 C 
ATOM     15  C10 UNL     1      13.221   4.643  19.507  0.00  0.00    +0.011 C 
ATOM     16  C11 UNL     1      13.281   3.184  20.025  0.00  0.00    +0.055 C 
ATOM     17  H7  UNL     1      11.690   1.089  21.345  0.00  0.00    +0.189 HD
ENDBRANCH   5   9
BRANCH   1  20
ATOM     18  O1  UNL     1       7.330   9.176  26.577  0.00  0.00    -0.276 OA
ATOM     19  C1  UNL     1       8.556   9.412  26.397  0.00  0.00    +0.216 C 
ATOM     20  N1  UNL     1       9.281   8.718  25.370  0.00  0.00    -0.312 N 
ATOM     21  H1  UNL     1      10.273   8.992  25.189  0.00  0.00    +0.149 HD
BRANCH  19  22
ATOM     22  C14 UNL     1       9.248  10.443  27.251  0.00  0.00    +0.075 C 
ATOM     23  C15 UNL     1       8.269  11.563  27.652  0.00  0.00    +0.013 C 
ATOM     24  C16 UNL     1       8.975  12.630  28.499  0.00  0.00    +0.001 C 
ATOM     25  C17 UNL     1      10.189  13.205  27.760  0.00  0.00    +0.000 C 
ATOM     26  C18 UNL     1      11.167  12.094  27.358  0.00  0.00    +0.001 C 
ATOM     27  C19 UNL     1      10.466  11.024  26.509  0.00  0.00    +0.013 C 
ENDBRANCH  19  22
ENDBRANCH   1  20
TORSDOF 3
ENDMDL
