REMARK  Name = /home/qwerty/github/datacon2025hack/step_04_hit_selection/docking/ligands/lig_711.pdb
REMARK  3 active torsions:
REMARK  status: ('A' for Active; 'I' for Inactive)
REMARK    1  A    between atoms: N1_3  and  C2_4
REMARK    2  A    between atoms: C5_7  and  C6_8
REMARK    3  A    between atoms: C19_25  and  C20_26
REMARK                            x       y       z     vdW  Elec       q    Type
REMARK                         _______ _______ _______ _____ _____    ______ ____
ROOT
ATOM      1  O1  UNL     1       0.768  -0.777   0.225  0.00  0.00    -0.252 OA
ATOM      2  C1  UNL     1       1.028  -2.009   0.163  0.00  0.00    +0.310 C 
ATOM      3  N1  UNL     1       2.387  -2.466   0.241  0.00  0.00    -0.269 N 
ATOM      4  N2  UNL     1      -0.034  -2.970   0.056  0.00  0.00    -0.248 N 
ATOM      5  C14 UNL     1      -1.424  -2.623  -0.015  0.00  0.00    +0.166 A 
ATOM      6  N3  UNL     1      -1.891  -1.352   0.024  0.00  0.00    -0.229 NA
ATOM      7  C15 UNL     1      -3.246  -1.325  -0.069  0.00  0.00    +0.062 A 
ATOM      8  C16 UNL     1      -3.850  -2.567  -0.155  0.00  0.00    +0.079 A 
ATOM      9  S1  UNL     1      -2.666  -3.760  -0.150  0.00  0.00    -0.049 S 
ATOM     10  C17 UNL     1      -5.302  -2.733  -0.256  0.00  0.00    +0.172 C 
ATOM     11  O2  UNL     1      -5.814  -3.879  -0.354  0.00  0.00    -0.291 OA
ATOM     12  C18 UNL     1      -6.174  -1.507  -0.173  0.00  0.00    +0.088 C 
ATOM     13  C19 UNL     1      -5.427  -0.251  -0.695  0.00  0.00    +0.032 C 
ATOM     14  C26 UNL     1      -4.053  -0.060   0.000  0.00  0.00    +0.065 C 
ATOM     15  H1  UNL     1       2.547  -3.472   0.476  0.00  0.00    +0.156 HD
ATOM     16  H11 UNL     1       0.217  -3.983   0.019  0.00  0.00    +0.158 HD
ENDROOT
BRANCH  13  17
ATOM     17  C20 UNL     1      -6.285   0.993  -0.562  0.00  0.00    -0.043 A 
ATOM     18  C21 UNL     1      -6.708   1.454   0.701  0.00  0.00    +0.007 A 
ATOM     19  C22 UNL     1      -7.497   2.602   0.808  0.00  0.00    +0.038 A 
ATOM     20  C23 UNL     1      -7.873   3.304  -0.340  0.00  0.00    +0.123 A 
ATOM     21  F1  UNL     1      -8.639   4.418  -0.234  0.00  0.00    -0.205 F 
ATOM     22  C24 UNL     1      -7.460   2.857  -1.598  0.00  0.00    +0.038 A 
ATOM     23  C25 UNL     1      -6.670   1.709  -1.710  0.00  0.00    +0.007 A 
ENDBRANCH  13  17
BRANCH   3  24
ATOM     24  C2  UNL     1       3.534  -1.606   0.135  0.00  0.00    +0.035 A 
ATOM     25  C3  UNL     1       3.541  -0.494  -0.725  0.00  0.00    +0.024 A 
ATOM     26  C4  UNL     1       4.676   0.315  -0.825  0.00  0.00    +0.010 A 
ATOM     27  C5  UNL     1       5.831   0.024  -0.077  0.00  0.00    -0.018 A 
ATOM     28  C12 UNL     1       5.828  -1.103   0.764  0.00  0.00    +0.010 A 
ATOM     29  C13 UNL     1       4.693  -1.913   0.862  0.00  0.00    +0.024 A 
BRANCH  27  30
ATOM     30  C6  UNL     1       7.036   0.886  -0.179  0.00  0.00    -0.018 A 
ATOM     31  C7  UNL     1       7.450   1.394  -1.426  0.00  0.00    +0.008 A 
ATOM     32  C8  UNL     1       8.584   2.206  -1.518  0.00  0.00    +0.001 A 
ATOM     33  C9  UNL     1       9.316   2.521  -0.371  0.00  0.00    +0.000 A 
ATOM     34  C10 UNL     1       8.915   2.024   0.871  0.00  0.00    +0.001 A 
ATOM     35  C11 UNL     1       7.783   1.210   0.969  0.00  0.00    +0.008 A 
ENDBRANCH  27  30
ENDBRANCH   3  24
TORSDOF 3
