MODEL 1
REMARK VINA RESULT:    -7.402      0.000      0.000
REMARK INTER + INTRA:          -9.288
REMARK INTER:                  -8.701
REMARK INTRA:                  -0.588
REMARK UNBOUND:                -0.588
REMARK  Name = /home/qwerty/github/datacon2025hack/step_04_hit_selection/docking/ligands/lig_94.pdb
REMARK  3 active torsions:
REMARK  status: ('A' for Active; 'I' for Inactive)
REMARK    1  A    between atoms: N1_3  and  C2_4
REMARK    2  A    between atoms: C2_4  and  C3_5
REMARK    3  A    between atoms: C11_16  and  C12_17
REMARK                            x       y       z     vdW  Elec       q    Type
REMARK                         _______ _______ _______ _____ _____    ______ ____
ROOT
ATOM      1  O1  UNL     1      19.136   6.580  37.141  0.00  0.00    -0.253 OA
ATOM      2  C1  UNL     1      19.282   7.824  37.295  0.00  0.00    +0.302 C 
ATOM      3  N1  UNL     1      20.592   8.362  37.538  0.00  0.00    -0.295 N 
ATOM      4  N2  UNL     1      18.133   8.687  37.200  0.00  0.00    -0.286 N 
ATOM      5  C9  UNL     1      16.981   8.253  36.396  0.00  0.00    +0.110 C 
ATOM      6  C10 UNL     1      16.069   9.433  36.050  0.00  0.00    +0.027 C 
ATOM      7  C11 UNL     1      15.602  10.169  37.323  0.00  0.00    +0.022 C 
ATOM      8  C20 UNL     1      16.726  10.339  38.384  0.00  0.00    +0.027 C 
ATOM      9  C21 UNL     1      18.126  10.008  37.849  0.00  0.00    +0.110 C 
ATOM     10  H1  UNL     1      20.734   9.396  37.552  0.00  0.00    +0.151 HD
ENDROOT
BRANCH   7  11
ATOM     11  C12 UNL     1      14.961  11.496  36.960  0.00  0.00    -0.043 A 
ATOM     12  C13 UNL     1      13.565  11.582  36.702  0.00  0.00    +0.006 A 
ATOM     13  C14 UNL     1      12.966  12.813  36.379  0.00  0.00    +0.026 A 
ATOM     14  C15 UNL     1      13.781  13.939  36.324  0.00  0.00    +0.046 A 
ATOM     15  N3  UNL     1      13.414  15.199  36.038  0.00  0.00    -0.361 N 
ATOM     16  C16 UNL     1      14.546  15.938  36.111  0.00  0.00    +0.083 A 
ATOM     17  C17 UNL     1      15.636  15.141  36.445  0.00  0.00    +0.027 A 
ATOM     18  C18 UNL     1      15.124  13.869  36.575  0.00  0.00    -0.000 A 
ATOM     19  C19 UNL     1      15.751  12.668  36.899  0.00  0.00    +0.014 A 
ATOM     20  H14 UNL     1      12.456  15.542  35.808  0.00  0.00    +0.165 HD
ENDBRANCH   7  11
BRANCH   3  21
ATOM     21  C2  UNL     1      21.772   7.512  37.683  0.00  0.00    +0.141 C 
BRANCH  21  22
ATOM     22  C3  UNL     1      22.501   7.404  36.371  0.00  0.00    -0.029 A 
ATOM     23  C4  UNL     1      23.394   6.342  36.152  0.00  0.00    +0.008 A 
ATOM     24  C5  UNL     1      24.092   6.248  34.944  0.00  0.00    +0.040 A 
ATOM     25  C6  UNL     1      23.907   7.212  33.949  0.00  0.00    +0.142 A 
ATOM     26  F1  UNL     1      24.590   7.112  32.781  0.00  0.00    -0.204 F 
ATOM     27  C7  UNL     1      23.022   8.277  34.162  0.00  0.00    +0.076 A 
ATOM     28 CL1  UNL     1      22.788   9.497  32.922  0.00  0.00    -0.081 Cl
ATOM     29  C8  UNL     1      22.323   8.373  35.370  0.00  0.00    +0.028 A 
ENDBRANCH  21  22
ENDBRANCH   3  21
TORSDOF 3
ENDMDL
MODEL 2
REMARK VINA RESULT:    -7.392      9.511     11.515
REMARK INTER + INTRA:          -9.276
REMARK INTER:                  -8.687
REMARK INTRA:                  -0.589
REMARK UNBOUND:                -0.588
REMARK  Name = /home/qwerty/github/datacon2025hack/step_04_hit_selection/docking/ligands/lig_94.pdb
REMARK  3 active torsions:
REMARK  status: ('A' for Active; 'I' for Inactive)
REMARK    1  A    between atoms: N1_3  and  C2_4
REMARK    2  A    between atoms: C2_4  and  C3_5
REMARK    3  A    between atoms: C11_16  and  C12_17
REMARK                            x       y       z     vdW  Elec       q    Type
REMARK                         _______ _______ _______ _____ _____    ______ ____
ROOT
ATOM      1  O1  UNL     1      21.631   3.430  30.864  0.00  0.00    -0.253 OA
ATOM      2  C1  UNL     1      21.381   2.250  31.235  0.00  0.00    +0.302 C 
ATOM      3  N1  UNL     1      22.064   1.149  30.613  0.00  0.00    -0.295 N 
ATOM      4  N2  UNL     1      20.430   2.028  32.294  0.00  0.00    -0.286 N 
ATOM      5  C9  UNL     1      20.209   3.091  33.285  0.00  0.00    +0.110 C 
ATOM      6  C10 UNL     1      19.531   2.544  34.544  0.00  0.00    +0.027 C 
ATOM      7  C11 UNL     1      18.206   1.831  34.200  0.00  0.00    +0.022 C 
ATOM      8  C20 UNL     1      18.294   0.955  32.919  0.00  0.00    +0.027 C 
ATOM      9  C21 UNL     1      19.730   0.740  32.422  0.00  0.00    +0.110 C 
ATOM     10  H1  UNL     1      21.946   0.184  30.993  0.00  0.00    +0.151 HD
ENDROOT
BRANCH   7  11
ATOM     11  C12 UNL     1      17.706   1.040  35.395  0.00  0.00    -0.043 A 
ATOM     12  C13 UNL     1      17.963   1.487  36.721  0.00  0.00    +0.006 A 
ATOM     13  C14 UNL     1      17.490   0.763  37.830  0.00  0.00    +0.026 A 
ATOM     14  C15 UNL     1      16.761  -0.398  37.587  0.00  0.00    +0.046 A 
ATOM     15  N3  UNL     1      16.222  -1.228  38.495  0.00  0.00    -0.361 N 
ATOM     16  C16 UNL     1      15.613  -2.205  37.784  0.00  0.00    +0.083 A 
ATOM     17  C17 UNL     1      15.767  -1.992  36.418  0.00  0.00    +0.027 A 
ATOM     18  C18 UNL     1      16.504  -0.833  36.316  0.00  0.00    -0.000 A 
ATOM     19  C19 UNL     1      16.956  -0.143  35.194  0.00  0.00    +0.014 A 
ATOM     20  H14 UNL     1      16.261  -1.140  39.534  0.00  0.00    +0.165 HD
ENDBRANCH   7  11
BRANCH   3  21
ATOM     21  C2  UNL     1      23.000   1.335  29.507  0.00  0.00    +0.141 C 
BRANCH  21  22
ATOM     22  C3  UNL     1      22.251   1.547  28.220  0.00  0.00    -0.029 A 
ATOM     23  C4  UNL     1      21.222   0.664  27.854  0.00  0.00    +0.008 A 
ATOM     24  C5  UNL     1      20.537   0.842  26.649  0.00  0.00    +0.040 A 
ATOM     25  C6  UNL     1      20.874   1.899  25.798  0.00  0.00    +0.142 A 
ATOM     26  F1  UNL     1      20.204   2.062  24.630  0.00  0.00    -0.204 F 
ATOM     27  C7  UNL     1      21.903   2.781  26.153  0.00  0.00    +0.076 A 
ATOM     28 CL1  UNL     1      22.339   4.108  25.090  0.00  0.00    -0.081 Cl
ATOM     29  C8  UNL     1      22.590   2.605  27.359  0.00  0.00    +0.028 A 
ENDBRANCH  21  22
ENDBRANCH   3  21
TORSDOF 3
ENDMDL
MODEL 3
REMARK VINA RESULT:    -7.298      8.434     12.043
REMARK INTER + INTRA:          -9.165
REMARK INTER:                  -8.623
REMARK INTRA:                  -0.543
REMARK UNBOUND:                -0.588
REMARK  Name = /home/qwerty/github/datacon2025hack/step_04_hit_selection/docking/ligands/lig_94.pdb
REMARK  3 active torsions:
REMARK  status: ('A' for Active; 'I' for Inactive)
REMARK    1  A    between atoms: N1_3  and  C2_4
REMARK    2  A    between atoms: C2_4  and  C3_5
REMARK    3  A    between atoms: C11_16  and  C12_17
REMARK                            x       y       z     vdW  Elec       q    Type
REMARK                         _______ _______ _______ _____ _____    ______ ____
ROOT
ATOM      1  O1  UNL     1      11.080  14.475  28.088  0.00  0.00    -0.253 OA
ATOM      2  C1  UNL     1      10.730  13.796  29.093  0.00  0.00    +0.302 C 
ATOM      3  N1  UNL     1       9.637  12.870  28.980  0.00  0.00    -0.295 N 
ATOM      4  N2  UNL     1      11.449  13.945  30.333  0.00  0.00    -0.286 N 
ATOM      5  C9  UNL     1      12.850  14.390  30.293  0.00  0.00    +0.110 C 
ATOM      6  C10 UNL     1      13.569  14.076  31.607  0.00  0.00    +0.027 C 
ATOM      7  C11 UNL     1      12.831  14.699  32.810  0.00  0.00    +0.022 C 
ATOM      8  C20 UNL     1      11.284  14.568  32.718  0.00  0.00    +0.027 C 
ATOM      9  C21 UNL     1      10.817  13.607  31.617  0.00  0.00    +0.110 C 
ATOM     10  H1  UNL     1       9.418  12.226  29.773  0.00  0.00    +0.151 HD
ENDROOT
BRANCH   7  11
ATOM     11  C12 UNL     1      13.371  14.135  34.111  0.00  0.00    -0.043 A 
ATOM     12  C13 UNL     1      12.517  13.959  35.236  0.00  0.00    +0.006 A 
ATOM     13  C14 UNL     1      13.012  13.423  36.439  0.00  0.00    +0.026 A 
ATOM     14  C15 UNL     1      14.356  13.068  36.489  0.00  0.00    +0.046 A 
ATOM     15  N3  UNL     1      15.023  12.542  37.530  0.00  0.00    -0.361 N 
ATOM     16  C16 UNL     1      16.295  12.365  37.102  0.00  0.00    +0.083 A 
ATOM     17  C17 UNL     1      16.433  12.782  35.782  0.00  0.00    +0.027 A 
ATOM     18  C18 UNL     1      15.184  13.227  35.412  0.00  0.00    -0.000 A 
ATOM     19  C19 UNL     1      14.730  13.754  34.205  0.00  0.00    +0.014 A 
ATOM     20  H14 UNL     1      14.643  12.314  38.475  0.00  0.00    +0.165 HD
ENDBRANCH   7  11
BRANCH   3  21
ATOM     21  C2  UNL     1       8.859  12.726  27.752  0.00  0.00    +0.141 C 
BRANCH  21  22
ATOM     22  C3  UNL     1       8.326  11.323  27.634  0.00  0.00    -0.029 A 
ATOM     23  C4  UNL     1       8.245  10.708  26.374  0.00  0.00    +0.008 A 
ATOM     24  C5  UNL     1       7.731   9.414  26.255  0.00  0.00    +0.040 A 
ATOM     25  C6  UNL     1       7.290   8.726  27.388  0.00  0.00    +0.142 A 
ATOM     26  F1  UNL     1       6.791   7.470  27.261  0.00  0.00    -0.204 F 
ATOM     27  C7  UNL     1       7.363   9.334  28.649  0.00  0.00    +0.076 A 
ATOM     28 CL1  UNL     1       6.807   8.481  30.078  0.00  0.00    -0.081 Cl
ATOM     29  C8  UNL     1       7.878  10.629  28.770  0.00  0.00    +0.028 A 
ENDBRANCH  21  22
ENDBRANCH   3  21
TORSDOF 3
ENDMDL
MODEL 4
REMARK VINA RESULT:    -7.280     12.670     15.494
REMARK INTER + INTRA:          -9.144
REMARK INTER:                  -8.581
REMARK INTRA:                  -0.563
REMARK UNBOUND:                -0.588
REMARK  Name = /home/qwerty/github/datacon2025hack/step_04_hit_selection/docking/ligands/lig_94.pdb
REMARK  3 active torsions:
REMARK  status: ('A' for Active; 'I' for Inactive)
REMARK    1  A    between atoms: N1_3  and  C2_4
REMARK    2  A    between atoms: C2_4  and  C3_5
REMARK    3  A    between atoms: C11_16  and  C12_17
REMARK                            x       y       z     vdW  Elec       q    Type
REMARK                         _______ _______ _______ _____ _____    ______ ____
ROOT
ATOM      1  O1  UNL     1       9.560   9.881  29.836  0.00  0.00    -0.253 OA
ATOM      2  C1  UNL     1       8.784   9.896  28.841  0.00  0.00    +0.302 C 
ATOM      3  N1  UNL     1       8.017  11.077  28.554  0.00  0.00    -0.295 N 
ATOM      4  N2  UNL     1       8.697   8.733  27.995  0.00  0.00    -0.286 N 
ATOM      5  C9  UNL     1       9.848   7.821  27.920  0.00  0.00    +0.110 C 
ATOM      6  C10 UNL     1       9.763   6.921  26.684  0.00  0.00    +0.027 C 
ATOM      7  C11 UNL     1       8.437   6.132  26.659  0.00  0.00    +0.022 C 
ATOM      8  C20 UNL     1       7.208   6.981  27.090  0.00  0.00    +0.027 C 
ATOM      9  C21 UNL     1       7.503   8.486  27.173  0.00  0.00    +0.110 C 
ATOM     10  H1  UNL     1       7.462  11.133  27.671  0.00  0.00    +0.151 HD
ENDROOT
BRANCH   7  11
ATOM     11  C12 UNL     1       8.232   5.488  25.300  0.00  0.00    -0.043 A 
ATOM     12  C13 UNL     1       7.902   4.108  25.193  0.00  0.00    +0.006 A 
ATOM     13  C14 UNL     1       7.698   3.512  23.935  0.00  0.00    +0.026 A 
ATOM     14  C15 UNL     1       7.825   4.315  22.805  0.00  0.00    +0.046 A 
ATOM     15  N3  UNL     1       7.671   3.949  21.522  0.00  0.00    -0.361 N 
ATOM     16  C16 UNL     1       7.889   5.066  20.791  0.00  0.00    +0.083 A 
ATOM     17  C17 UNL     1       8.183   6.147  21.617  0.00  0.00    +0.027 A 
ATOM     18  C18 UNL     1       8.137   5.644  22.898  0.00  0.00    -0.000 A 
ATOM     19  C19 UNL     1       8.345   6.268  24.125  0.00  0.00    +0.014 A 
ATOM     20  H14 UNL     1       7.432   2.999  21.160  0.00  0.00    +0.165 HD
ENDBRANCH   7  11
BRANCH   3  21
ATOM     21  C2  UNL     1       8.047  12.256  29.415  0.00  0.00    +0.141 C 
BRANCH  21  22
ATOM     22  C3  UNL     1       9.297  13.055  29.161  0.00  0.00    -0.029 A 
ATOM     23  C4  UNL     1       9.638  13.425  27.850  0.00  0.00    +0.008 A 
ATOM     24  C5  UNL     1      10.809  14.148  27.605  0.00  0.00    +0.040 A 
ATOM     25  C6  UNL     1      11.650  14.503  28.663  0.00  0.00    +0.142 A 
ATOM     26  F1  UNL     1      12.785  15.204  28.413  0.00  0.00    -0.204 F 
ATOM     27  C7  UNL     1      11.320  14.134  29.974  0.00  0.00    +0.076 A 
ATOM     28 CL1  UNL     1      12.372  14.571  31.309  0.00  0.00    -0.081 Cl
ATOM     29  C8  UNL     1      10.148  13.411  30.221  0.00  0.00    +0.028 A 
ENDBRANCH  21  22
ENDBRANCH   3  21
TORSDOF 3
ENDMDL
MODEL 5
REMARK VINA RESULT:    -7.208      7.009      9.329
REMARK INTER + INTRA:          -9.060
REMARK INTER:                  -8.475
REMARK INTRA:                  -0.584
REMARK UNBOUND:                -0.588
REMARK  Name = /home/qwerty/github/datacon2025hack/step_04_hit_selection/docking/ligands/lig_94.pdb
REMARK  3 active torsions:
REMARK  status: ('A' for Active; 'I' for Inactive)
REMARK    1  A    between atoms: N1_3  and  C2_4
REMARK    2  A    between atoms: C2_4  and  C3_5
REMARK    3  A    between atoms: C11_16  and  C12_17
REMARK                            x       y       z     vdW  Elec       q    Type
REMARK                         _______ _______ _______ _____ _____    ______ ____
ROOT
ATOM      1  O1  UNL     1      18.994   1.043  30.132  0.00  0.00    -0.253 OA
ATOM      2  C1  UNL     1      19.902   1.436  30.915  0.00  0.00    +0.302 C 
ATOM      3  N1  UNL     1      21.271   1.091  30.649  0.00  0.00    -0.295 N 
ATOM      4  N2  UNL     1      19.551   2.248  32.053  0.00  0.00    -0.286 N 
ATOM      5  C9  UNL     1      18.331   3.066  31.994  0.00  0.00    +0.110 C 
ATOM      6  C10 UNL     1      18.346   4.163  33.062  0.00  0.00    +0.027 C 
ATOM      7  C11 UNL     1      18.538   3.566  34.472  0.00  0.00    +0.022 C 
ATOM      8  C20 UNL     1      19.587   2.420  34.518  0.00  0.00    +0.027 C 
ATOM      9  C21 UNL     1      20.424   2.306  33.236  0.00  0.00    +0.110 C 
ATOM     10  H1  UNL     1      22.033   1.507  31.228  0.00  0.00    +0.151 HD
ENDROOT
BRANCH   7  11
ATOM     11  C12 UNL     1      18.854   4.664  35.471  0.00  0.00    -0.043 A 
ATOM     12  C13 UNL     1      18.098   4.796  36.669  0.00  0.00    +0.006 A 
ATOM     13  C14 UNL     1      18.397   5.804  37.604  0.00  0.00    +0.026 A 
ATOM     14  C15 UNL     1      19.456   6.661  37.320  0.00  0.00    +0.046 A 
ATOM     15  N3  UNL     1      19.906   7.679  38.071  0.00  0.00    -0.361 N 
ATOM     16  C16 UNL     1      20.946   8.211  37.387  0.00  0.00    +0.083 A 
ATOM     17  C17 UNL     1      21.155   7.524  36.196  0.00  0.00    +0.027 A 
ATOM     18  C18 UNL     1      20.193   6.539  36.173  0.00  0.00    -0.000 A 
ATOM     19  C19 UNL     1      19.926   5.554  35.227  0.00  0.00    +0.014 A 
ATOM     20  H14 UNL     1      19.534   7.998  38.993  0.00  0.00    +0.165 HD
ENDBRANCH   7  11
BRANCH   3  21
ATOM     21  C2  UNL     1      21.656   0.233  29.531  0.00  0.00    +0.141 C 
BRANCH  21  22
ATOM     22  C3  UNL     1      21.720   1.034  28.258  0.00  0.00    -0.029 A 
ATOM     23  C4  UNL     1      22.592   2.132  28.164  0.00  0.00    +0.008 A 
ATOM     24  C5  UNL     1      22.640   2.894  26.993  0.00  0.00    +0.040 A 
ATOM     25  C6  UNL     1      21.818   2.570  25.911  0.00  0.00    +0.142 A 
ATOM     26  F1  UNL     1      21.871   3.317  24.779  0.00  0.00    -0.204 F 
ATOM     27  C7  UNL     1      20.942   1.481  25.998  0.00  0.00    +0.076 A 
ATOM     28 CL1  UNL     1      19.900   1.069  24.646  0.00  0.00    -0.081 Cl
ATOM     29  C8  UNL     1      20.892   0.717  27.169  0.00  0.00    +0.028 A 
ENDBRANCH  21  22
ENDBRANCH   3  21
TORSDOF 3
ENDMDL
MODEL 6
REMARK VINA RESULT:    -7.040      4.661      9.911
REMARK INTER + INTRA:          -8.862
REMARK INTER:                  -8.303
REMARK INTRA:                  -0.559
REMARK UNBOUND:                -0.588
REMARK  Name = /home/qwerty/github/datacon2025hack/step_04_hit_selection/docking/ligands/lig_94.pdb
REMARK  3 active torsions:
REMARK  status: ('A' for Active; 'I' for Inactive)
REMARK    1  A    between atoms: N1_3  and  C2_4
REMARK    2  A    between atoms: C2_4  and  C3_5
REMARK    3  A    between atoms: C11_16  and  C12_17
REMARK                            x       y       z     vdW  Elec       q    Type
REMARK                         _______ _______ _______ _____ _____    ______ ____
ROOT
ATOM      1  O1  UNL     1      16.786  13.440  34.282  0.00  0.00    -0.253 OA
ATOM      2  C1  UNL     1      17.382  12.862  35.232  0.00  0.00    +0.302 C 
ATOM      3  N1  UNL     1      16.920  13.046  36.580  0.00  0.00    -0.295 N 
ATOM      4  N2  UNL     1      18.505  12.005  34.945  0.00  0.00    -0.286 N 
ATOM      5  C9  UNL     1      18.591  11.364  33.625  0.00  0.00    +0.110 C 
ATOM      6  C10 UNL     1      19.566  10.184  33.643  0.00  0.00    +0.027 C 
ATOM      7  C11 UNL     1      20.963  10.622  34.132  0.00  0.00    +0.022 C 
ATOM      8  C20 UNL     1      20.913  11.610  35.331  0.00  0.00    +0.027 C 
ATOM      9  C21 UNL     1      19.522  11.727  35.970  0.00  0.00    +0.110 C 
ATOM     10  H1  UNL     1      17.337  12.482  37.354  0.00  0.00    +0.151 HD
ENDROOT
BRANCH   7  11
ATOM     11  C12 UNL     1      21.821   9.407  34.434  0.00  0.00    -0.043 A 
ATOM     12  C13 UNL     1      21.723   8.743  35.689  0.00  0.00    +0.006 A 
ATOM     13  C14 UNL     1      22.507   7.609  35.967  0.00  0.00    +0.026 A 
ATOM     14  C15 UNL     1      23.374   7.158  34.976  0.00  0.00    +0.046 A 
ATOM     15  N3  UNL     1      24.203   6.102  35.035  0.00  0.00    -0.361 N 
ATOM     16  C16 UNL     1      24.835   6.063  33.839  0.00  0.00    +0.083 A 
ATOM     17  C17 UNL     1      24.404   7.100  33.018  0.00  0.00    +0.027 A 
ATOM     18  C18 UNL     1      23.472   7.787  33.765  0.00  0.00    -0.000 A 
ATOM     19  C19 UNL     1      22.712   8.911  33.454  0.00  0.00    +0.014 A 
ATOM     20  H14 UNL     1      24.334   5.445  35.835  0.00  0.00    +0.165 HD
ENDBRANCH   7  11
BRANCH   3  21
ATOM     21  C2  UNL     1      15.813  13.940  36.911  0.00  0.00    +0.141 C 
BRANCH  21  22
ATOM     22  C3  UNL     1      14.500  13.221  36.765  0.00  0.00    -0.029 A 
ATOM     23  C4  UNL     1      14.404  11.861  37.101  0.00  0.00    +0.008 A 
ATOM     24  C5  UNL     1      13.193  11.181  36.946  0.00  0.00    +0.040 A 
ATOM     25  C6  UNL     1      12.070  11.850  36.451  0.00  0.00    +0.142 A 
ATOM     26  F1  UNL     1      10.899  11.181  36.304  0.00  0.00    -0.204 F 
ATOM     27  C7  UNL     1      12.158  13.206  36.108  0.00  0.00    +0.076 A 
ATOM     28 CL1  UNL     1      10.755  14.055  35.481  0.00  0.00    -0.081 Cl
ATOM     29  C8  UNL     1      13.370  13.888  36.263  0.00  0.00    +0.028 A 
ENDBRANCH  21  22
ENDBRANCH   3  21
TORSDOF 3
ENDMDL
MODEL 7
REMARK VINA RESULT:    -7.036     15.450     18.308
REMARK INTER + INTRA:          -8.858
REMARK INTER:                  -8.347
REMARK INTRA:                  -0.511
REMARK UNBOUND:                -0.588
REMARK  Name = /home/qwerty/github/datacon2025hack/step_04_hit_selection/docking/ligands/lig_94.pdb
REMARK  3 active torsions:
REMARK  status: ('A' for Active; 'I' for Inactive)
REMARK    1  A    between atoms: N1_3  and  C2_4
REMARK    2  A    between atoms: C2_4  and  C3_5
REMARK    3  A    between atoms: C11_16  and  C12_17
REMARK                            x       y       z     vdW  Elec       q    Type
REMARK                         _______ _______ _______ _____ _____    ______ ____
ROOT
ATOM      1  O1  UNL     1       8.428   9.784  21.711  0.00  0.00    -0.253 OA
ATOM      2  C1  UNL     1       8.917   8.919  22.489  0.00  0.00    +0.302 C 
ATOM      3  N1  UNL     1       8.623   8.978  23.895  0.00  0.00    -0.295 N 
ATOM      4  N2  UNL     1       9.744   7.870  21.950  0.00  0.00    -0.286 N 
ATOM      5  C9  UNL     1       9.556   7.466  20.549  0.00  0.00    +0.110 C 
ATOM      6  C10 UNL     1      10.178   6.093  20.279  0.00  0.00    +0.027 C 
ATOM      7  C11 UNL     1      11.673   6.073  20.659  0.00  0.00    +0.022 C 
ATOM      8  C20 UNL     1      11.981   6.819  21.987  0.00  0.00    +0.027 C 
ATOM      9  C21 UNL     1      10.724   7.171  22.796  0.00  0.00    +0.110 C 
ATOM     10  H1  UNL     1       8.931   8.203  24.522  0.00  0.00    +0.151 HD
ENDROOT
BRANCH   7  11
ATOM     11  C12 UNL     1      12.194   4.648  20.676  0.00  0.00    -0.043 A 
ATOM     12  C13 UNL     1      11.374   3.580  21.137  0.00  0.00    +0.006 A 
ATOM     13  C14 UNL     1      11.850   2.256  21.142  0.00  0.00    +0.026 A 
ATOM     14  C15 UNL     1      13.141   2.027  20.679  0.00  0.00    +0.046 A 
ATOM     15  N3  UNL     1      13.782   0.849  20.597  0.00  0.00    -0.361 N 
ATOM     16  C16 UNL     1      15.004   1.129  20.086  0.00  0.00    +0.083 A 
ATOM     17  C17 UNL     1      15.137   2.492  19.842  0.00  0.00    +0.027 A 
ATOM     18  C18 UNL     1      13.936   3.045  20.228  0.00  0.00    -0.000 A 
ATOM     19  C19 UNL     1      13.500   4.367  20.209  0.00  0.00    +0.014 A 
ATOM     20  H14 UNL     1      13.417  -0.090  20.870  0.00  0.00    +0.165 HD
ENDBRANCH   7  11
BRANCH   3  21
ATOM     21  C2  UNL     1       7.825  10.052  24.481  0.00  0.00    +0.141 C 
BRANCH  21  22
ATOM     22  C3  UNL     1       7.791   9.918  25.979  0.00  0.00    -0.029 A 
ATOM     23  C4  UNL     1       7.360   8.717  26.566  0.00  0.00    +0.008 A 
ATOM     24  C5  UNL     1       7.305   8.592  27.957  0.00  0.00    +0.040 A 
ATOM     25  C6  UNL     1       7.674   9.665  28.773  0.00  0.00    +0.142 A 
ATOM     26  F1  UNL     1       7.615   9.535  30.122  0.00  0.00    -0.204 F 
ATOM     27  C7  UNL     1       8.100  10.869  28.196  0.00  0.00    +0.076 A 
ATOM     28 CL1  UNL     1       8.561  12.224  29.212  0.00  0.00    -0.081 Cl
ATOM     29  C8  UNL     1       8.157  10.995  26.804  0.00  0.00    +0.028 A 
ENDBRANCH  21  22
ENDBRANCH   3  21
TORSDOF 3
ENDMDL
MODEL 8
REMARK VINA RESULT:    -6.791     16.062     18.761
REMARK INTER + INTRA:          -8.570
REMARK INTER:                  -7.998
REMARK INTRA:                  -0.572
REMARK UNBOUND:                -0.588
REMARK  Name = /home/qwerty/github/datacon2025hack/step_04_hit_selection/docking/ligands/lig_94.pdb
REMARK  3 active torsions:
REMARK  status: ('A' for Active; 'I' for Inactive)
REMARK    1  A    between atoms: N1_3  and  C2_4
REMARK    2  A    between atoms: C2_4  and  C3_5
REMARK    3  A    between atoms: C11_16  and  C12_17
REMARK                            x       y       z     vdW  Elec       q    Type
REMARK                         _______ _______ _______ _____ _____    ______ ____
ROOT
ATOM      1  O1  UNL     1       9.567   3.531  21.531  0.00  0.00    -0.253 OA
ATOM      2  C1  UNL     1      10.799   3.725  21.345  0.00  0.00    +0.302 C 
ATOM      3  N1  UNL     1      11.243   4.948  20.734  0.00  0.00    -0.295 N 
ATOM      4  N2  UNL     1      11.745   2.725  21.771  0.00  0.00    -0.286 N 
ATOM      5  C9  UNL     1      11.379   1.824  22.873  0.00  0.00    +0.110 C 
ATOM      6  C10 UNL     1      12.616   1.149  23.472  0.00  0.00    +0.027 C 
ATOM      7  C11 UNL     1      13.418   0.395  22.391  0.00  0.00    +0.022 C 
ATOM      8  C20 UNL     1      13.529   1.175  21.051  0.00  0.00    +0.027 C 
ATOM      9  C21 UNL     1      13.079   2.638  21.156  0.00  0.00    +0.110 C 
ATOM     10  H1  UNL     1      12.263   5.163  20.682  0.00  0.00    +0.151 HD
ENDROOT
BRANCH   7  11
ATOM     11  C12 UNL     1      14.780  -0.005  22.928  0.00  0.00    -0.043 A 
ATOM     12  C13 UNL     1      15.891   0.878  22.820  0.00  0.00    +0.006 A 
ATOM     13  C14 UNL     1      17.151   0.516  23.329  0.00  0.00    +0.026 A 
ATOM     14  C15 UNL     1      17.273  -0.727  23.943  0.00  0.00    +0.046 A 
ATOM     15  N3  UNL     1      18.376  -1.262  24.492  0.00  0.00    -0.361 N 
ATOM     16  C16 UNL     1      18.003  -2.475  24.962  0.00  0.00    +0.083 A 
ATOM     17  C17 UNL     1      16.656  -2.709  24.709  0.00  0.00    +0.027 A 
ATOM     18  C18 UNL     1      16.210  -1.581  24.057  0.00  0.00    -0.000 A 
ATOM     19  C19 UNL     1      14.948  -1.257  23.566  0.00  0.00    +0.014 A 
ATOM     20  H14 UNL     1      19.326  -0.833  24.548  0.00  0.00    +0.165 HD
ENDBRANCH   7  11
BRANCH   3  21
ATOM     21  C2  UNL     1      10.309   5.963  20.251  0.00  0.00    +0.141 C 
BRANCH  21  22
ATOM     22  C3  UNL     1      10.489   7.245  21.018  0.00  0.00    -0.029 A 
ATOM     23  C4  UNL     1       9.828   7.426  22.244  0.00  0.00    +0.008 A 
ATOM     24  C5  UNL     1       9.973   8.623  22.951  0.00  0.00    +0.040 A 
ATOM     25  C6  UNL     1      10.774   9.648  22.440  0.00  0.00    +0.142 A 
ATOM     26  F1  UNL     1      10.907  10.807  23.134  0.00  0.00    -0.204 F 
ATOM     27  C7  UNL     1      11.433   9.478  21.216  0.00  0.00    +0.076 A 
ATOM     28 CL1  UNL     1      12.436  10.761  20.562  0.00  0.00    -0.081 Cl
ATOM     29  C8  UNL     1      11.289   8.280  20.507  0.00  0.00    +0.028 A 
ENDBRANCH  21  22
ENDBRANCH   3  21
TORSDOF 3
ENDMDL
MODEL 9
REMARK VINA RESULT:    -6.780     12.134     14.444
REMARK INTER + INTRA:          -8.557
REMARK INTER:                  -7.932
REMARK INTRA:                  -0.624
REMARK UNBOUND:                -0.588
REMARK  Name = /home/qwerty/github/datacon2025hack/step_04_hit_selection/docking/ligands/lig_94.pdb
REMARK  3 active torsions:
REMARK  status: ('A' for Active; 'I' for Inactive)
REMARK    1  A    between atoms: N1_3  and  C2_4
REMARK    2  A    between atoms: C2_4  and  C3_5
REMARK    3  A    between atoms: C11_16  and  C12_17
REMARK                            x       y       z     vdW  Elec       q    Type
REMARK                         _______ _______ _______ _____ _____    ______ ____
ROOT
ATOM      1  O1  UNL     1      21.788   2.954  27.549  0.00  0.00    -0.253 OA
ATOM      2  C1  UNL     1      21.127   1.901  27.331  0.00  0.00    +0.302 C 
ATOM      3  N1  UNL     1      21.301   0.761  28.189  0.00  0.00    -0.295 N 
ATOM      4  N2  UNL     1      20.190   1.867  26.237  0.00  0.00    -0.286 N 
ATOM      5  C9  UNL     1      19.592   3.128  25.774  0.00  0.00    +0.110 C 
ATOM      6  C10 UNL     1      18.335   2.872  24.940  0.00  0.00    +0.027 C 
ATOM      7  C11 UNL     1      18.636   1.939  23.748  0.00  0.00    +0.022 C 
ATOM      8  C20 UNL     1      19.581   0.760  24.114  0.00  0.00    +0.027 C 
ATOM      9  C21 UNL     1      19.791   0.591  25.625  0.00  0.00    +0.110 C 
ATOM     10  H1  UNL     1      20.677  -0.069  28.083  0.00  0.00    +0.151 HD
ENDROOT
BRANCH   7  11
ATOM     11  C12 UNL     1      17.343   1.454  23.118  0.00  0.00    -0.043 A 
ATOM     12  C13 UNL     1      16.898   0.117  23.312  0.00  0.00    +0.006 A 
ATOM     13  C14 UNL     1      15.693  -0.332  22.740  0.00  0.00    +0.026 A 
ATOM     14  C15 UNL     1      14.953   0.574  21.986  0.00  0.00    +0.046 A 
ATOM     15  N3  UNL     1      13.785   0.354  21.361  0.00  0.00    -0.361 N 
ATOM     16  C16 UNL     1      13.458   1.525  20.767  0.00  0.00    +0.083 A 
ATOM     17  C17 UNL     1      14.425   2.493  21.019  0.00  0.00    +0.027 A 
ATOM     18  C18 UNL     1      15.370   1.864  21.798  0.00  0.00    -0.000 A 
ATOM     19  C19 UNL     1      16.556   2.343  22.348  0.00  0.00    +0.014 A 
ATOM     20  H14 UNL     1      13.239  -0.535  21.336  0.00  0.00    +0.165 HD
ENDBRANCH   7  11
BRANCH   3  21
ATOM     21  C2  UNL     1      22.273   0.746  29.280  0.00  0.00    +0.141 C 
BRANCH  21  22
ATOM     22  C3  UNL     1      21.616   1.154  30.570  0.00  0.00    -0.029 A 
ATOM     23  C4  UNL     1      22.116   2.246  31.298  0.00  0.00    +0.008 A 
ATOM     24  C5  UNL     1      21.524   2.616  32.508  0.00  0.00    +0.040 A 
ATOM     25  C6  UNL     1      20.432   1.899  33.005  0.00  0.00    +0.142 A 
ATOM     26  F1  UNL     1      19.865   2.266  34.182  0.00  0.00    -0.204 F 
ATOM     27  C7  UNL     1      19.930   0.804  32.288  0.00  0.00    +0.076 A 
ATOM     28 CL1  UNL     1      18.562  -0.107  32.905  0.00  0.00    -0.081 Cl
ATOM     29  C8  UNL     1      20.521   0.433  31.076  0.00  0.00    +0.028 A 
ENDBRANCH  21  22
ENDBRANCH   3  21
TORSDOF 3
ENDMDL
