REMARK  Name = /home/qwerty/github/datacon2025hack/step_04_hit_selection/docking/ligands/lig_648.pdb
REMARK  9 active torsions:
REMARK  status: ('A' for Active; 'I' for Inactive)
REMARK    1  A    between atoms: C1_1  and  C2_2
REMARK    2  A    between atoms: C2_2  and  C3_3
REMARK    3  A    between atoms: C2_2  and  N1_4
REMARK    4  A    between atoms: C6_7  and  C7_8
REMARK    5  A    between atoms: C9_12  and  N3_13
REMARK    6  A    between atoms: N3_13  and  C10_14
REMARK    7  A    between atoms: C10_14  and  C11_15
REMARK    8  A    between atoms: C13_20  and  C14_21
REMARK    9  A    between atoms: C13_20  and  C15_22
REMARK                            x       y       z     vdW  Elec       q    Type
REMARK                         _______ _______ _______ _____ _____    ______ ____
ROOT
ATOM      1  C7  UNL     1       1.196   0.920  -0.328  0.00  0.00    +0.267 C 
ATOM      2  O1  UNL     1       1.201   1.807  -1.224  0.00  0.00    -0.268 OA
ATOM      3  N2  UNL     1      -0.062   0.467   0.208  0.00  0.00    -0.294 N 
ATOM      4  C8  UNL     1      -1.311   1.163  -0.060  0.00  0.00    +0.127 C 
ATOM      5  C9  UNL     1      -2.398   0.297   0.586  0.00  0.00    +0.078 C 
ATOM      6  C13 UNL     1      -1.785  -1.127   0.644  0.00  0.00    -0.002 C 
ATOM      7  C14 UNL     1      -2.028  -1.929  -0.657  0.00  0.00    +0.014 C 
ATOM      8  C15 UNL     1      -2.336  -1.925   1.842  0.00  0.00    +0.014 C 
ATOM      9  C16 UNL     1      -0.278  -0.848   0.800  0.00  0.00    +0.116 C 
ENDROOT
BRANCH   1  13
ATOM     10  N1  UNL     1       4.584  -0.134   0.061  0.00  0.00    -0.268 N 
ATOM     11  C4  UNL     1       4.136  -0.466   1.286  0.00  0.00    +0.109 A 
ATOM     12  C5  UNL     1       2.796  -0.154   1.361  0.00  0.00    +0.054 A 
ATOM     13  C6  UNL     1       2.490   0.369   0.115  0.00  0.00    +0.147 A 
ATOM     14  N6  UNL     1       3.598   0.387  -0.653  0.00  0.00    -0.166 NA
BRANCH  10  16
ATOM     15  C1  UNL     1       6.575   1.113  -0.650  0.00  0.00    +0.032 C 
ATOM     16  C2  UNL     1       5.963  -0.269  -0.415  0.00  0.00    +0.101 C 
ATOM     17  C3  UNL     1       6.000  -1.111  -1.693  0.00  0.00    +0.032 C 
ENDBRANCH  10  16
ENDBRANCH   1  13
BRANCH   5  18
ATOM     18  N3  UNL     1      -3.689   0.343  -0.131  0.00  0.00    -0.307 NA
ATOM     19  H13 UNL     1      -3.525   0.274  -1.164  0.00  0.00    +0.123 HD
BRANCH  18  20
ATOM     20  C10 UNL     1      -4.402   1.598   0.133  0.00  0.00    +0.127 C 
BRANCH  20  21
ATOM     21  C11 UNL     1      -5.745   1.561  -0.520  0.00  0.00    +0.044 A 
ATOM     22  C12 UNL     1      -6.905   0.961  -0.039  0.00  0.00    +0.149 A 
ATOM     23  N4  UNL     1      -7.965   1.000  -0.901  0.00  0.00    -0.149 NA
ATOM     24  N5  UNL     1      -7.714   1.590  -2.067  0.00  0.00    -0.110 NA
ATOM     25  S1  UNL     1      -6.130   2.086  -2.054  0.00  0.00    +0.033 S 
ENDBRANCH  20  21
ENDBRANCH  18  20
ENDBRANCH   5  18
TORSDOF 5
