MODEL 1
REMARK VINA RESULT:    -6.770      0.000      0.000
REMARK INTER + INTRA:          -7.889
REMARK INTER:                  -7.561
REMARK INTRA:                  -0.328
REMARK UNBOUND:                -0.328
REMARK  Name = /home/qwerty/github/datacon2025hack/step_04_hit_selection/docking/ligands/lig_579.pdb
REMARK  3 active torsions:
REMARK  status: ('A' for Active; 'I' for Inactive)
REMARK    1  A    between atoms: C1_1  and  C2_2
REMARK    2  A    between atoms: C2_2  and  N1_3
REMARK    3  A    between atoms: C2_2  and  C10_18
REMARK                            x       y       z     vdW  Elec       q    Type
REMARK                         _______ _______ _______ _____ _____    ______ ____
ROOT
ATOM      1  N1  UNL     1      16.920   0.798  23.574  0.00  0.00    -0.292 N 
ATOM      2  C3  UNL     1      16.175   0.560  22.368  0.00  0.00    +0.303 C 
ATOM      3  O1  UNL     1      16.269  -0.557  21.790  0.00  0.00    -0.253 OA
ATOM      4  N2  UNL     1      15.330   1.585  21.807  0.00  0.00    -0.283 N 
ATOM      5  C4  UNL     1      14.337   1.230  20.783  0.00  0.00    +0.128 C 
ATOM      6  C5  UNL     1      13.118   2.156  20.863  0.00  0.00    +0.126 C 
ATOM      7  N3  UNL     1      13.510   3.571  20.940  0.00  0.00    -0.305 N 
ATOM      8  C6  UNL     1      12.514   4.595  20.758  0.00  0.00    +0.182 A 
ATOM      9  N4  UNL     1      12.784   5.912  20.638  0.00  0.00    -0.191 NA
ATOM     10  C7  UNL     1      11.637   6.645  20.483  0.00  0.00    +0.222 A 
ATOM     11  N5  UNL     1      11.682   8.061  20.343  0.00  0.00    -0.327 N 
ATOM     12  N6  UNL     1      10.452   5.972  20.477  0.00  0.00    -0.173 NA
ATOM     13  S1  UNL     1      10.865   4.376  20.675  0.00  0.00    +0.051 S 
ATOM     14  C8  UNL     1      14.920   3.938  21.114  0.00  0.00    +0.126 C 
ATOM     15  C9  UNL     1      15.592   2.998  22.121  0.00  0.00    +0.128 C 
ATOM     16  H5  UNL     1      16.719   1.658  24.131  0.00  0.00    +0.151 HD
ATOM     17  H10 UNL     1      10.801   8.608  20.229  0.00  0.00    +0.145 HD
ATOM     18  H11 UNL     1      12.598   8.564  20.356  0.00  0.00    +0.145 HD
ENDROOT
BRANCH   1  20
ATOM     19  C1  UNL     1      17.405  -1.131  25.027  0.00  0.00    +0.033 C 
ATOM     20  C2  UNL     1      17.969  -0.118  24.027  0.00  0.00    +0.108 C 
BRANCH  20  21
ATOM     21  C10 UNL     1      19.088   0.660  24.661  0.00  0.00    +0.011 A 
ATOM     22  C11 UNL     1      19.676   0.368  25.892  0.00  0.00    +0.021 A 
ATOM     23  C12 UNL     1      20.671   1.287  26.238  0.00  0.00    -0.010 A 
ATOM     24  C13 UNL     1      21.445   1.267  27.402  0.00  0.00    +0.009 A 
ATOM     25  C14 UNL     1      22.407   2.274  27.591  0.00  0.00    +0.001 A 
ATOM     26  C15 UNL     1      22.582   3.284  26.625  0.00  0.00    +0.001 A 
ATOM     27  C16 UNL     1      21.800   3.297  25.462  0.00  0.00    +0.015 A 
ATOM     28  C17 UNL     1      20.855   2.288  25.295  0.00  0.00    +0.020 A 
ATOM     29  S2  UNL     1      19.793   2.060  24.015  0.00  0.00    -0.091 S 
ENDBRANCH  20  21
ENDBRANCH   1  20
TORSDOF 2
ENDMDL
MODEL 2
REMARK VINA RESULT:    -6.618     14.348     17.582
REMARK INTER + INTRA:          -7.720
REMARK INTER:                  -7.445
REMARK INTRA:                  -0.275
REMARK UNBOUND:                -0.328
REMARK  Name = /home/qwerty/github/datacon2025hack/step_04_hit_selection/docking/ligands/lig_579.pdb
REMARK  3 active torsions:
REMARK  status: ('A' for Active; 'I' for Inactive)
REMARK    1  A    between atoms: C1_1  and  C2_2
REMARK    2  A    between atoms: C2_2  and  N1_3
REMARK    3  A    between atoms: C2_2  and  C10_18
REMARK                            x       y       z     vdW  Elec       q    Type
REMARK                         _______ _______ _______ _____ _____    ______ ____
ROOT
ATOM      1  N1  UNL     1      13.312  13.670  34.032  0.00  0.00    -0.292 N 
ATOM      2  C3  UNL     1      14.102  13.982  35.191  0.00  0.00    +0.303 C 
ATOM      3  O1  UNL     1      13.704  14.870  35.993  0.00  0.00    -0.253 OA
ATOM      4  N2  UNL     1      15.348  13.300  35.442  0.00  0.00    -0.283 N 
ATOM      5  C4  UNL     1      15.969  13.385  36.770  0.00  0.00    +0.128 C 
ATOM      6  C5  UNL     1      16.762  12.111  37.083  0.00  0.00    +0.126 C 
ATOM      7  N3  UNL     1      17.638  11.723  35.969  0.00  0.00    -0.305 N 
ATOM      8  C6  UNL     1      18.644  10.714  36.173  0.00  0.00    +0.182 A 
ATOM      9  N4  UNL     1      19.608  10.402  35.281  0.00  0.00    -0.191 NA
ATOM     10  C7  UNL     1      20.415   9.399  35.748  0.00  0.00    +0.222 A 
ATOM     11  N5  UNL     1      21.499   8.904  34.969  0.00  0.00    -0.327 N 
ATOM     12  N6  UNL     1      20.139   8.886  36.980  0.00  0.00    -0.173 NA
ATOM     13  S1  UNL     1      18.814   9.735  37.510  0.00  0.00    +0.051 S 
ATOM     14  C8  UNL     1      17.546  12.421  34.680  0.00  0.00    +0.126 C 
ATOM     15  C9  UNL     1      16.079  12.685  34.324  0.00  0.00    +0.128 C 
ATOM     16  H5  UNL     1      13.561  12.833  33.459  0.00  0.00    +0.151 HD
ATOM     17  H10 UNL     1      22.105   8.137  35.334  0.00  0.00    +0.145 HD
ATOM     18  H11 UNL     1      21.695   9.302  34.023  0.00  0.00    +0.145 HD
ENDROOT
BRANCH   1  20
ATOM     19  C1  UNL     1      10.897  14.066  34.317  0.00  0.00    +0.033 C 
ATOM     20  C2  UNL     1      12.185  14.508  33.616  0.00  0.00    +0.108 C 
BRANCH  20  21
ATOM     21  C10 UNL     1      12.011  14.430  32.125  0.00  0.00    +0.011 A 
ATOM     22  C11 UNL     1      10.931  13.837  31.471  0.00  0.00    +0.021 A 
ATOM     23  C12 UNL     1      11.060  13.888  30.079  0.00  0.00    -0.010 A 
ATOM     24  C13 UNL     1      10.148  13.386  29.147  0.00  0.00    +0.009 A 
ATOM     25  C14 UNL     1      10.436  13.522  27.778  0.00  0.00    +0.001 A 
ATOM     26  C15 UNL     1      11.624  14.151  27.358  0.00  0.00    +0.001 A 
ATOM     27  C16 UNL     1      12.535  14.649  28.301  0.00  0.00    +0.015 A 
ATOM     28  C17 UNL     1      12.227  14.505  29.651  0.00  0.00    +0.020 A 
ATOM     29  S2  UNL     1      13.123  15.001  30.981  0.00  0.00    -0.091 S 
ENDBRANCH  20  21
ENDBRANCH   1  20
TORSDOF 2
ENDMDL
MODEL 3
REMARK VINA RESULT:    -6.615     11.524     13.935
REMARK INTER + INTRA:          -7.717
REMARK INTER:                  -7.368
REMARK INTRA:                  -0.349
REMARK UNBOUND:                -0.328
REMARK  Name = /home/qwerty/github/datacon2025hack/step_04_hit_selection/docking/ligands/lig_579.pdb
REMARK  3 active torsions:
REMARK  status: ('A' for Active; 'I' for Inactive)
REMARK    1  A    between atoms: C1_1  and  C2_2
REMARK    2  A    between atoms: C2_2  and  N1_3
REMARK    3  A    between atoms: C2_2  and  C10_18
REMARK                            x       y       z     vdW  Elec       q    Type
REMARK                         _______ _______ _______ _____ _____    ______ ____
ROOT
ATOM      1  N1  UNL     1      21.662   6.415  34.068  0.00  0.00    -0.292 N 
ATOM      2  C3  UNL     1      21.721   7.184  35.281  0.00  0.00    +0.303 C 
ATOM      3  O1  UNL     1      22.811   7.268  35.910  0.00  0.00    -0.253 OA
ATOM      4  N2  UNL     1      20.549   7.852  35.791  0.00  0.00    -0.283 N 
ATOM      5  C4  UNL     1      20.693   8.885  36.825  0.00  0.00    +0.128 C 
ATOM      6  C5  UNL     1      19.588   9.940  36.698  0.00  0.00    +0.126 C 
ATOM      7  N3  UNL     1      18.259   9.328  36.557  0.00  0.00    -0.305 N 
ATOM      8  C6  UNL     1      17.082  10.145  36.688  0.00  0.00    +0.182 A 
ATOM      9  N4  UNL     1      15.821   9.668  36.748  0.00  0.00    -0.191 NA
ATOM     10  C7  UNL     1      14.907  10.682  36.864  0.00  0.00    +0.222 A 
ATOM     11  N5  UNL     1      13.511  10.411  36.939  0.00  0.00    -0.327 N 
ATOM     12  N6  UNL     1      15.381  11.960  36.897  0.00  0.00    -0.173 NA
ATOM     13  S1  UNL     1      17.030  11.808  36.774  0.00  0.00    +0.051 S 
ATOM     14  C8  UNL     1      18.132   7.877  36.371  0.00  0.00    +0.126 C 
ATOM     15  C9  UNL     1      19.213   7.368  35.412  0.00  0.00    +0.128 C 
ATOM     16  H5  UNL     1      20.807   6.478  33.470  0.00  0.00    +0.151 HD
ATOM     17  H10 UNL     1      12.826  11.192  37.023  0.00  0.00    +0.145 HD
ATOM     18  H11 UNL     1      13.163   9.426  36.906  0.00  0.00    +0.145 HD
ENDROOT
BRANCH   1  20
ATOM     19  C1  UNL     1      23.636   6.206  32.610  0.00  0.00    +0.033 C 
ATOM     20  C2  UNL     1      22.753   5.528  33.661  0.00  0.00    +0.108 C 
BRANCH  20  21
ATOM     21  C10 UNL     1      22.193   4.245  33.112  0.00  0.00    +0.011 A 
ATOM     22  C11 UNL     1      22.528   3.683  31.879  0.00  0.00    +0.021 A 
ATOM     23  C12 UNL     1      21.821   2.504  31.624  0.00  0.00    -0.010 A 
ATOM     24  C13 UNL     1      21.933   1.706  30.482  0.00  0.00    +0.009 A 
ATOM     25  C14 UNL     1      21.143   0.547  30.387  0.00  0.00    +0.001 A 
ATOM     26  C15 UNL     1      20.254   0.202  31.424  0.00  0.00    +0.001 A 
ATOM     27  C16 UNL     1      20.147   1.011  32.565  0.00  0.00    +0.015 A 
ATOM     28  C17 UNL     1      20.941   2.152  32.638  0.00  0.00    +0.020 A 
ATOM     29  S2  UNL     1      21.018   3.289  33.871  0.00  0.00    -0.091 S 
ENDBRANCH  20  21
ENDBRANCH   1  20
TORSDOF 2
ENDMDL
MODEL 4
REMARK VINA RESULT:    -6.585      8.229     11.543
REMARK INTER + INTRA:          -7.682
REMARK INTER:                  -7.414
REMARK INTRA:                  -0.269
REMARK UNBOUND:                -0.328
REMARK  Name = /home/qwerty/github/datacon2025hack/step_04_hit_selection/docking/ligands/lig_579.pdb
REMARK  3 active torsions:
REMARK  status: ('A' for Active; 'I' for Inactive)
REMARK    1  A    between atoms: C1_1  and  C2_2
REMARK    2  A    between atoms: C2_2  and  N1_3
REMARK    3  A    between atoms: C2_2  and  C10_18
REMARK                            x       y       z     vdW  Elec       q    Type
REMARK                         _______ _______ _______ _____ _____    ______ ____
ROOT
ATOM      1  N1  UNL     1      22.395   1.932  30.492  0.00  0.00    -0.292 N 
ATOM      2  C3  UNL     1      21.058   2.295  30.874  0.00  0.00    +0.303 C 
ATOM      3  O1  UNL     1      20.082   1.646  30.410  0.00  0.00    -0.253 OA
ATOM      4  N2  UNL     1      20.820   3.397  31.774  0.00  0.00    -0.283 N 
ATOM      5  C4  UNL     1      19.503   3.547  32.408  0.00  0.00    +0.128 C 
ATOM      6  C5  UNL     1      19.633   4.207  33.786  0.00  0.00    +0.126 C 
ATOM      7  N3  UNL     1      20.485   5.404  33.740  0.00  0.00    -0.305 N 
ATOM      8  C6  UNL     1      20.514   6.299  34.868  0.00  0.00    +0.182 A 
ATOM      9  N4  UNL     1      21.119   7.505  34.874  0.00  0.00    -0.191 NA
ATOM     10  C7  UNL     1      20.987   8.125  36.087  0.00  0.00    +0.222 A 
ATOM     11  N5  UNL     1      21.553   9.410  36.323  0.00  0.00    -0.327 N 
ATOM     12  N6  UNL     1      20.301   7.466  37.064  0.00  0.00    -0.173 NA
ATOM     13  S1  UNL     1      19.838   6.032  36.367  0.00  0.00    +0.051 S 
ATOM     14  C8  UNL     1      21.234   5.732  32.521  0.00  0.00    +0.126 C 
ATOM     15  C9  UNL     1      21.827   4.460  31.905  0.00  0.00    +0.128 C 
ATOM     16  H5  UNL     1      23.201   2.364  30.997  0.00  0.00    +0.151 HD
ATOM     17  H10 UNL     1      21.449   9.871  37.253  0.00  0.00    +0.145 HD
ATOM     18  H11 UNL     1      22.082   9.901  35.567  0.00  0.00    +0.145 HD
ENDROOT
BRANCH   1  20
ATOM     19  C1  UNL     1      24.146   0.634  29.343  0.00  0.00    +0.033 C 
ATOM     20  C2  UNL     1      22.658   0.994  29.399  0.00  0.00    +0.108 C 
BRANCH  20  21
ATOM     21  C10 UNL     1      22.228   1.598  28.091  0.00  0.00    +0.011 A 
ATOM     22  C11 UNL     1      22.760   2.757  27.525  0.00  0.00    +0.021 A 
ATOM     23  C12 UNL     1      22.137   3.093  26.319  0.00  0.00    -0.010 A 
ATOM     24  C13 UNL     1      22.444   4.191  25.510  0.00  0.00    +0.009 A 
ATOM     25  C14 UNL     1      21.714   4.382  24.324  0.00  0.00    +0.001 A 
ATOM     26  C15 UNL     1      20.691   3.483  23.963  0.00  0.00    +0.001 A 
ATOM     27  C16 UNL     1      20.389   2.385  24.783  0.00  0.00    +0.015 A 
ATOM     28  C17 UNL     1      21.127   2.215  25.951  0.00  0.00    +0.020 A 
ATOM     29  S2  UNL     1      20.982   1.006  27.105  0.00  0.00    -0.091 S 
ENDBRANCH  20  21
ENDBRANCH   1  20
TORSDOF 2
ENDMDL
MODEL 5
REMARK VINA RESULT:    -6.561      4.558     10.347
REMARK INTER + INTRA:          -7.656
REMARK INTER:                  -7.233
REMARK INTRA:                  -0.423
REMARK UNBOUND:                -0.328
REMARK  Name = /home/qwerty/github/datacon2025hack/step_04_hit_selection/docking/ligands/lig_579.pdb
REMARK  3 active torsions:
REMARK  status: ('A' for Active; 'I' for Inactive)
REMARK    1  A    between atoms: C1_1  and  C2_2
REMARK    2  A    between atoms: C2_2  and  N1_3
REMARK    3  A    between atoms: C2_2  and  C10_18
REMARK                            x       y       z     vdW  Elec       q    Type
REMARK                         _______ _______ _______ _____ _____    ______ ____
ROOT
ATOM      1  N1  UNL     1      11.624   7.932  20.550  0.00  0.00    -0.292 N 
ATOM      2  C3  UNL     1      11.036   6.621  20.547  0.00  0.00    +0.303 C 
ATOM      3  O1  UNL     1       9.819   6.487  20.247  0.00  0.00    -0.253 OA
ATOM      4  N2  UNL     1      11.819   5.459  20.889  0.00  0.00    -0.283 N 
ATOM      5  C4  UNL     1      11.311   4.118  20.567  0.00  0.00    +0.128 C 
ATOM      6  C5  UNL     1      12.467   3.150  20.290  0.00  0.00    +0.126 C 
ATOM      7  N3  UNL     1      13.507   3.230  21.325  0.00  0.00    -0.305 N 
ATOM      8  C6  UNL     1      14.534   2.223  21.380  0.00  0.00    +0.182 A 
ATOM      9  N4  UNL     1      15.433   2.099  22.379  0.00  0.00    -0.191 NA
ATOM     10  C7  UNL     1      16.290   1.055  22.154  0.00  0.00    +0.222 A 
ATOM     11  N5  UNL     1      17.327   0.741  23.079  0.00  0.00    -0.327 N 
ATOM     12  N6  UNL     1      16.122   0.332  21.011  0.00  0.00    -0.173 NA
ATOM     13  S1  UNL     1      14.830   1.041  20.244  0.00  0.00    +0.051 S 
ATOM     14  C8  UNL     1      13.451   4.281  22.349  0.00  0.00    +0.126 C 
ATOM     15  C9  UNL     1      13.023   5.611  21.720  0.00  0.00    +0.128 C 
ATOM     16  H5  UNL     1      12.661   8.022  20.642  0.00  0.00    +0.151 HD
ATOM     17  H10 UNL     1      17.975  -0.055  22.894  0.00  0.00    +0.145 HD
ATOM     18  H11 UNL     1      17.448   1.307  23.948  0.00  0.00    +0.145 HD
ENDROOT
BRANCH   1  20
ATOM     19  C1  UNL     1      11.647  10.319  19.940  0.00  0.00    +0.033 C 
ATOM     20  C2  UNL     1      10.809   9.145  20.456  0.00  0.00    +0.108 C 
BRANCH  20  21
ATOM     21  C10 UNL     1      10.230   9.480  21.802  0.00  0.00    +0.011 A 
ATOM     22  C11 UNL     1      10.970   9.824  22.934  0.00  0.00    +0.021 A 
ATOM     23  C12 UNL     1      10.159  10.049  24.050  0.00  0.00    -0.010 A 
ATOM     24  C13 UNL     1      10.595  10.412  25.328  0.00  0.00    +0.009 A 
ATOM     25  C14 UNL     1       9.639  10.599  26.341  0.00  0.00    +0.001 A 
ATOM     26  C15 UNL     1       8.268  10.420  26.071  0.00  0.00    +0.001 A 
ATOM     27  C16 UNL     1       7.840  10.054  24.786  0.00  0.00    +0.015 A 
ATOM     28  C17 UNL     1       8.805   9.876  23.798  0.00  0.00    +0.020 A 
ATOM     29  S2  UNL     1       8.581   9.442  22.192  0.00  0.00    -0.091 S 
ENDBRANCH  20  21
ENDBRANCH   1  20
TORSDOF 2
ENDMDL
MODEL 6
REMARK VINA RESULT:    -6.522      4.138      6.519
REMARK INTER + INTRA:          -7.612
REMARK INTER:                  -7.241
REMARK INTRA:                  -0.371
REMARK UNBOUND:                -0.328
REMARK  Name = /home/qwerty/github/datacon2025hack/step_04_hit_selection/docking/ligands/lig_579.pdb
REMARK  3 active torsions:
REMARK  status: ('A' for Active; 'I' for Inactive)
REMARK    1  A    between atoms: C1_1  and  C2_2
REMARK    2  A    between atoms: C2_2  and  N1_3
REMARK    3  A    between atoms: C2_2  and  C10_18
REMARK                            x       y       z     vdW  Elec       q    Type
REMARK                         _______ _______ _______ _____ _____    ______ ____
ROOT
ATOM      1  N1  UNL     1      21.231   0.559  27.521  0.00  0.00    -0.292 N 
ATOM      2  C3  UNL     1      20.765   1.816  27.002  0.00  0.00    +0.303 C 
ATOM      3  O1  UNL     1      21.372   2.878  27.308  0.00  0.00    -0.253 OA
ATOM      4  N2  UNL     1      19.607   1.877  26.143  0.00  0.00    -0.283 N 
ATOM      5  C4  UNL     1      19.342   3.095  25.366  0.00  0.00    +0.128 C 
ATOM      6  C5  UNL     1      18.625   2.758  24.053  0.00  0.00    +0.126 C 
ATOM      7  N3  UNL     1      17.489   1.851  24.268  0.00  0.00    -0.305 N 
ATOM      8  C6  UNL     1      16.544   1.632  23.204  0.00  0.00    +0.182 A 
ATOM      9  N4  UNL     1      15.380   0.962  23.339  0.00  0.00    -0.191 NA
ATOM     10  C7  UNL     1      14.693   0.907  22.156  0.00  0.00    +0.222 A 
ATOM     11  N5  UNL     1      13.437   0.243  22.063  0.00  0.00    -0.327 N 
ATOM     12  N6  UNL     1      15.259   1.504  21.068  0.00  0.00    -0.173 NA
ATOM     13  S1  UNL     1      16.693   2.132  21.622  0.00  0.00    +0.051 S 
ATOM     14  C8  UNL     1      17.270   1.240  25.585  0.00  0.00    +0.126 C 
ATOM     15  C9  UNL     1      18.605   0.802  26.195  0.00  0.00    +0.128 C 
ATOM     16  H5  UNL     1      20.827  -0.326  27.141  0.00  0.00    +0.151 HD
ATOM     17  H10 UNL     1      12.926   0.205  21.154  0.00  0.00    +0.145 HD
ATOM     18  H11 UNL     1      13.019  -0.216  22.903  0.00  0.00    +0.145 HD
ENDROOT
BRANCH   1  20
ATOM     19  C1  UNL     1      22.795  -0.934  28.701  0.00  0.00    +0.033 C 
ATOM     20  C2  UNL     1      22.236   0.487  28.583  0.00  0.00    +0.108 C 
BRANCH  20  21
ATOM     21  C10 UNL     1      21.629   0.910  29.892  0.00  0.00    +0.011 A 
ATOM     22  C11 UNL     1      20.512   0.325  30.488  0.00  0.00    +0.021 A 
ATOM     23  C12 UNL     1      20.159   0.953  31.687  0.00  0.00    -0.010 A 
ATOM     24  C13 UNL     1      19.094   0.602  32.521  0.00  0.00    +0.009 A 
ATOM     25  C14 UNL     1      18.881   1.345  33.695  0.00  0.00    +0.001 A 
ATOM     26  C15 UNL     1      19.725   2.424  34.020  0.00  0.00    +0.001 A 
ATOM     27  C16 UNL     1      20.790   2.771  33.176  0.00  0.00    +0.015 A 
ATOM     28  C17 UNL     1      20.984   2.019  32.020  0.00  0.00    +0.020 A 
ATOM     29  S2  UNL     1      22.165   2.208  30.842  0.00  0.00    -0.091 S 
ENDBRANCH  20  21
ENDBRANCH   1  20
TORSDOF 2
ENDMDL
MODEL 7
REMARK VINA RESULT:    -6.474      9.583     12.399
REMARK INTER + INTRA:          -7.558
REMARK INTER:                  -7.153
REMARK INTRA:                  -0.405
REMARK UNBOUND:                -0.328
REMARK  Name = /home/qwerty/github/datacon2025hack/step_04_hit_selection/docking/ligands/lig_579.pdb
REMARK  3 active torsions:
REMARK  status: ('A' for Active; 'I' for Inactive)
REMARK    1  A    between atoms: C1_1  and  C2_2
REMARK    2  A    between atoms: C2_2  and  N1_3
REMARK    3  A    between atoms: C2_2  and  C10_18
REMARK                            x       y       z     vdW  Elec       q    Type
REMARK                         _______ _______ _______ _____ _____    ______ ____
ROOT
ATOM      1  N1  UNL     1       8.318  11.906  27.035  0.00  0.00    -0.292 N 
ATOM      2  C3  UNL     1       8.656  10.566  27.429  0.00  0.00    +0.303 C 
ATOM      3  O1  UNL     1       8.712  10.275  28.654  0.00  0.00    -0.253 OA
ATOM      4  N2  UNL     1       8.939   9.555  26.440  0.00  0.00    -0.283 N 
ATOM      5  C4  UNL     1       8.955   8.139  26.832  0.00  0.00    +0.128 C 
ATOM      6  C5  UNL     1       8.521   7.245  25.664  0.00  0.00    +0.126 C 
ATOM      7  N3  UNL     1       9.221   7.594  24.419  0.00  0.00    -0.305 N 
ATOM      8  C6  UNL     1       9.143   6.707  23.288  0.00  0.00    +0.182 A 
ATOM      9  N4  UNL     1       9.875   6.836  22.162  0.00  0.00    -0.191 NA
ATOM     10  C7  UNL     1       9.580   5.851  21.258  0.00  0.00    +0.222 A 
ATOM     11  N5  UNL     1      10.231   5.793  19.993  0.00  0.00    -0.327 N 
ATOM     12  N6  UNL     1       8.636   4.932  21.608  0.00  0.00    -0.173 NA
ATOM     13  S1  UNL     1       8.147   5.381  23.130  0.00  0.00    +0.051 S 
ATOM     14  C8  UNL     1      10.064   8.794  24.358  0.00  0.00    +0.126 C 
ATOM     15  C9  UNL     1       9.391   9.954  25.099  0.00  0.00    +0.128 C 
ATOM     16  H5  UNL     1       8.118  12.104  26.029  0.00  0.00    +0.151 HD
ATOM     17  H10 UNL     1       9.995   5.039  19.311  0.00  0.00    +0.145 HD
ATOM     18  H11 UNL     1      10.949   6.508  19.735  0.00  0.00    +0.145 HD
ENDROOT
BRANCH   1  20
ATOM     19  C1  UNL     1       7.456  14.178  27.446  0.00  0.00    +0.033 C 
ATOM     20  C2  UNL     1       8.274  13.007  28.000  0.00  0.00    +0.108 C 
BRANCH  20  21
ATOM     21  C10 UNL     1       9.669  13.463  28.322  0.00  0.00    +0.011 A 
ATOM     22  C11 UNL     1      10.613  13.889  27.388  0.00  0.00    +0.021 A 
ATOM     23  C12 UNL     1      11.836  14.221  27.981  0.00  0.00    -0.010 A 
ATOM     24  C13 UNL     1      12.976  14.683  27.318  0.00  0.00    +0.009 A 
ATOM     25  C14 UNL     1      14.127  14.970  28.072  0.00  0.00    +0.001 A 
ATOM     26  C15 UNL     1      14.128  14.791  29.469  0.00  0.00    +0.001 A 
ATOM     27  C16 UNL     1      12.979  14.325  30.125  0.00  0.00    +0.015 A 
ATOM     28  C17 UNL     1      11.850  14.049  29.358  0.00  0.00    +0.020 A 
ATOM     29  S2  UNL     1      10.356  13.486  29.872  0.00  0.00    -0.091 S 
ENDBRANCH  20  21
ENDBRANCH   1  20
TORSDOF 2
ENDMDL
MODEL 8
REMARK VINA RESULT:    -6.441      5.977      9.157
REMARK INTER + INTRA:          -7.522
REMARK INTER:                  -7.146
REMARK INTRA:                  -0.376
REMARK UNBOUND:                -0.328
REMARK  Name = /home/qwerty/github/datacon2025hack/step_04_hit_selection/docking/ligands/lig_579.pdb
REMARK  3 active torsions:
REMARK  status: ('A' for Active; 'I' for Inactive)
REMARK    1  A    between atoms: C1_1  and  C2_2
REMARK    2  A    between atoms: C2_2  and  N1_3
REMARK    3  A    between atoms: C2_2  and  C10_18
REMARK                            x       y       z     vdW  Elec       q    Type
REMARK                         _______ _______ _______ _____ _____    ______ ____
ROOT
ATOM      1  N1  UNL     1      21.549   3.647  30.999  0.00  0.00    -0.292 N 
ATOM      2  C3  UNL     1      21.977   2.610  30.102  0.00  0.00    +0.303 C 
ATOM      3  O1  UNL     1      22.827   1.764  30.492  0.00  0.00    -0.253 OA
ATOM      4  N2  UNL     1      21.455   2.531  28.759  0.00  0.00    -0.283 N 
ATOM      5  C4  UNL     1      21.642   1.301  27.977  0.00  0.00    +0.128 C 
ATOM      6  C5  UNL     1      20.478   1.096  27.000  0.00  0.00    +0.126 C 
ATOM      7  N3  UNL     1      20.175   2.319  26.244  0.00  0.00    -0.305 N 
ATOM      8  C6  UNL     1      19.299   2.252  25.105  0.00  0.00    +0.182 A 
ATOM      9  N4  UNL     1      19.086   3.267  24.241  0.00  0.00    -0.191 NA
ATOM     10  C7  UNL     1      18.197   2.913  23.261  0.00  0.00    +0.222 A 
ATOM     11  N5  UNL     1      17.820   3.832  22.242  0.00  0.00    -0.327 N 
ATOM     12  N6  UNL     1      17.681   1.652  23.301  0.00  0.00    -0.173 NA
ATOM     13  S1  UNL     1      18.376   0.947  24.635  0.00  0.00    +0.051 S 
ATOM     14  C8  UNL     1      20.830   3.585  26.596  0.00  0.00    +0.126 C 
ATOM     15  C9  UNL     1      20.908   3.737  28.119  0.00  0.00    +0.128 C 
ATOM     16  H5  UNL     1      20.735   4.245  30.730  0.00  0.00    +0.151 HD
ATOM     17  H10 UNL     1      17.139   3.551  21.503  0.00  0.00    +0.145 HD
ATOM     18  H11 UNL     1      18.219   4.797  22.227  0.00  0.00    +0.145 HD
ENDROOT
BRANCH   1  20
ATOM     19  C1  UNL     1      21.263   3.785  33.442  0.00  0.00    +0.033 C 
ATOM     20  C2  UNL     1      22.236   3.906  32.266  0.00  0.00    +0.108 C 
BRANCH  20  21
ATOM     21  C10 UNL     1      22.848   5.279  32.246  0.00  0.00    +0.011 A 
ATOM     22  C11 UNL     1      22.520   6.294  31.347  0.00  0.00    +0.021 A 
ATOM     23  C12 UNL     1      23.278   7.451  31.551  0.00  0.00    -0.010 A 
ATOM     24  C13 UNL     1      23.185   8.639  30.821  0.00  0.00    +0.009 A 
ATOM     25  C14 UNL     1      24.029   9.710  31.161  0.00  0.00    +0.001 A 
ATOM     26  C15 UNL     1      24.952   9.583  32.217  0.00  0.00    +0.001 A 
ATOM     27  C16 UNL     1      25.040   8.387  32.943  0.00  0.00    +0.015 A 
ATOM     28  C17 UNL     1      24.193   7.340  32.589  0.00  0.00    +0.020 A 
ATOM     29  S2  UNL     1      24.083   5.813  33.277  0.00  0.00    -0.091 S 
ENDBRANCH  20  21
ENDBRANCH   1  20
TORSDOF 2
ENDMDL
MODEL 9
REMARK VINA RESULT:    -6.427     14.414     17.271
REMARK INTER + INTRA:          -7.506
REMARK INTER:                  -7.067
REMARK INTRA:                  -0.440
REMARK UNBOUND:                -0.328
REMARK  Name = /home/qwerty/github/datacon2025hack/step_04_hit_selection/docking/ligands/lig_579.pdb
REMARK  3 active torsions:
REMARK  status: ('A' for Active; 'I' for Inactive)
REMARK    1  A    between atoms: C1_1  and  C2_2
REMARK    2  A    between atoms: C2_2  and  N1_3
REMARK    3  A    between atoms: C2_2  and  C10_18
REMARK                            x       y       z     vdW  Elec       q    Type
REMARK                         _______ _______ _______ _____ _____    ______ ____
ROOT
ATOM      1  N1  UNL     1      13.697  10.490  36.773  0.00  0.00    -0.292 N 
ATOM      2  C3  UNL     1      14.949  11.166  36.976  0.00  0.00    +0.303 C 
ATOM      3  O1  UNL     1      14.954  12.333  37.453  0.00  0.00    -0.253 OA
ATOM      4  N2  UNL     1      16.197  10.529  36.633  0.00  0.00    -0.283 N 
ATOM      5  C4  UNL     1      17.460  11.082  37.142  0.00  0.00    +0.128 C 
ATOM      6  C5  UNL     1      18.499   9.973  37.341  0.00  0.00    +0.126 C 
ATOM      7  N3  UNL     1      18.589   9.091  36.168  0.00  0.00    -0.305 N 
ATOM      8  C6  UNL     1      19.682   8.160  36.061  0.00  0.00    +0.182 A 
ATOM      9  N4  UNL     1      19.960   7.429  34.962  0.00  0.00    -0.191 NA
ATOM     10  C7  UNL     1      21.053   6.627  35.158  0.00  0.00    +0.222 A 
ATOM     11  N5  UNL     1      21.526   5.763  34.130  0.00  0.00    -0.327 N 
ATOM     12  N6  UNL     1      21.667   6.679  36.374  0.00  0.00    -0.173 NA
ATOM     13  S1  UNL     1      20.792   7.789  37.246  0.00  0.00    +0.051 S 
ATOM     14  C8  UNL     1      17.621   9.219  35.072  0.00  0.00    +0.126 C 
ATOM     15  C9  UNL     1      16.214   9.452  35.632  0.00  0.00    +0.128 C 
ATOM     16  H5  UNL     1      13.704   9.474  36.530  0.00  0.00    +0.151 HD
ATOM     17  H10 UNL     1      22.358   5.154  34.293  0.00  0.00    +0.145 HD
ATOM     18  H11 UNL     1      21.042   5.728  33.205  0.00  0.00    +0.145 HD
ENDROOT
BRANCH   1  20
ATOM     19  C1  UNL     1      11.314  10.238  37.343  0.00  0.00    +0.033 C 
ATOM     20  C2  UNL     1      12.415  11.191  36.871  0.00  0.00    +0.108 C 
BRANCH  20  21
ATOM     21  C10 UNL     1      12.049  11.777  35.536  0.00  0.00    +0.011 A 
ATOM     22  C11 UNL     1      11.746  11.043  34.389  0.00  0.00    +0.021 A 
ATOM     23  C12 UNL     1      11.475  11.862  33.289  0.00  0.00    -0.010 A 
ATOM     24  C13 UNL     1      11.137  11.432  32.003  0.00  0.00    +0.009 A 
ATOM     25  C14 UNL     1      10.896  12.397  31.009  0.00  0.00    +0.001 A 
ATOM     26  C15 UNL     1      10.999  13.770  31.307  0.00  0.00    +0.001 A 
ATOM     27  C16 UNL     1      11.342  14.191  32.600  0.00  0.00    +0.015 A 
ATOM     28  C17 UNL     1      11.573  13.218  33.569  0.00  0.00    +0.020 A 
ATOM     29  S2  UNL     1      11.994  13.434  35.179  0.00  0.00    -0.091 S 
ENDBRANCH  20  21
ENDBRANCH   1  20
TORSDOF 2
ENDMDL
