MODEL 1
REMARK VINA RESULT:    -6.369      0.000      0.000
REMARK INTER + INTRA:          -9.436
REMARK INTER:                  -8.789
REMARK INTRA:                  -0.648
REMARK UNBOUND:                -0.648
REMARK  Name = /home/qwerty/github/datacon2025hack/step_04_hit_selection/docking/ligands/lig_180.pdb
REMARK  8 active torsions:
REMARK  status: ('A' for Active; 'I' for Inactive)
REMARK    1  A    between atoms: C1_1  and  C2_2
REMARK    2  A    between atoms: C2_2  and  O1_3
REMARK    3  A    between atoms: C2_2  and  C3_4
REMARK    4  A    between atoms: C3_4  and  N1_5
REMARK    5  A    between atoms: N3_11  and  C7_12
REMARK    6  A    between atoms: C11_17  and  C12_18
REMARK    7  A    between atoms: N4_20  and  C13_21
REMARK    8  A    between atoms: C13_21  and  C14_22
REMARK                            x       y       z     vdW  Elec       q    Type
REMARK                         _______ _______ _______ _____ _____    ______ ____
ROOT
ATOM      1  C7  UNL     1      13.495   5.026  20.588  0.00  0.00    +0.036 A 
ATOM      2  C8  UNL     1      14.628   4.994  19.757  0.00  0.00    +0.025 A 
ATOM      3  C9  UNL     1      15.420   3.847  19.688  0.00  0.00    +0.022 A 
ATOM      4  C10 UNL     1      15.094   2.711  20.438  0.00  0.00    +0.053 A 
ATOM      5 CL1  UNL     1      16.080   1.268  20.217  0.00  0.00    -0.083 Cl
ATOM      6  C11 UNL     1      13.956   2.726  21.274  0.00  0.00    +0.057 A 
ATOM      7  C18 UNL     1      13.155   3.880  21.321  0.00  0.00    +0.037 A 
ENDROOT
BRANCH   1  14
ATOM      8  N1  UNL     1       8.635   9.515  21.312  0.00  0.00    -0.297 NA
ATOM      9  C4  UNL     1       9.886   9.707  20.530  0.00  0.00    +0.103 C 
ATOM     10  C5  UNL     1      10.952   8.634  20.799  0.00  0.00    +0.124 C 
ATOM     11  N2  UNL     1      10.393   7.289  20.621  0.00  0.00    -0.283 N 
ATOM     12  C6  UNL     1      11.239   6.162  20.321  0.00  0.00    +0.307 C 
ATOM     13  O2  UNL     1      10.742   5.152  19.751  0.00  0.00    -0.252 OA
ATOM     14  N3  UNL     1      12.641   6.181  20.649  0.00  0.00    -0.269 N 
ATOM     15  C19 UNL     1       8.945   7.098  20.758  0.00  0.00    +0.124 C 
ATOM     16  C20 UNL     1       8.387   8.121  21.749  0.00  0.00    +0.103 C 
ATOM     17  H12 UNL     1      13.089   7.088  20.905  0.00  0.00    +0.156 HD
BRANCH   8  18
ATOM     18  C3  UNL     1       8.531  10.455  22.449  0.00  0.00    +0.115 C 
BRANCH  18  20
ATOM     19  C1  UNL     1       8.313  10.019  24.948  0.00  0.00    +0.039 C 
ATOM     20  C2  UNL     1       7.651   9.871  23.573  0.00  0.00    +0.125 C 
BRANCH  20  21
ATOM     21  O1  UNL     1       6.387  10.485  23.572  0.00  0.00    -0.391 OA
ATOM     22  H5  UNL     1       5.932  10.239  22.724  0.00  0.00    +0.210 HD
ENDBRANCH  20  21
ENDBRANCH  18  20
ENDBRANCH   8  18
ENDBRANCH   1  14
BRANCH   6  23
ATOM     23  C12 UNL     1      13.565   1.552  22.084  0.00  0.00    +0.246 C 
ATOM     24  O3  UNL     1      12.574   0.859  21.729  0.00  0.00    -0.270 OA
ATOM     25  N4  UNL     1      14.271   1.227  23.290  0.00  0.00    -0.307 N 
ATOM     26  H15 UNL     1      14.938   1.923  23.695  0.00  0.00    +0.149 HD
BRANCH  25  27
ATOM     27  C13 UNL     1      14.072  -0.035  23.997  0.00  0.00    +0.147 C 
BRANCH  27  28
ATOM     28  C14 UNL     1      15.315  -0.864  23.927  0.00  0.00    +0.007 A 
ATOM     29  C15 UNL     1      16.054  -1.121  22.781  0.00  0.00    +0.013 A 
ATOM     30  C16 UNL     1      17.138  -1.977  23.006  0.00  0.00    +0.008 A 
ATOM     31  C17 UNL     1      17.252  -2.398  24.324  0.00  0.00    +0.045 A 
ATOM     32  S1  UNL     1      15.999  -1.708  25.209  0.00  0.00    -0.100 S 
ENDBRANCH  27  28
ENDBRANCH  25  27
ENDBRANCH   6  23
TORSDOF 7
ENDMDL
MODEL 2
REMARK VINA RESULT:    -6.306     14.738     16.224
REMARK INTER + INTRA:          -9.350
REMARK INTER:                  -8.450
REMARK INTRA:                  -0.900
REMARK UNBOUND:                -0.648
REMARK  Name = /home/qwerty/github/datacon2025hack/step_04_hit_selection/docking/ligands/lig_180.pdb
REMARK  8 active torsions:
REMARK  status: ('A' for Active; 'I' for Inactive)
REMARK    1  A    between atoms: C1_1  and  C2_2
REMARK    2  A    between atoms: C2_2  and  O1_3
REMARK    3  A    between atoms: C2_2  and  C3_4
REMARK    4  A    between atoms: C3_4  and  N1_5
REMARK    5  A    between atoms: N3_11  and  C7_12
REMARK    6  A    between atoms: C11_17  and  C12_18
REMARK    7  A    between atoms: N4_20  and  C13_21
REMARK    8  A    between atoms: C13_21  and  C14_22
REMARK                            x       y       z     vdW  Elec       q    Type
REMARK                         _______ _______ _______ _____ _____    ______ ____
ROOT
ATOM      1  C7  UNL     1      16.815   9.610  36.684  0.00  0.00    +0.036 A 
ATOM      2  C8  UNL     1      16.946   8.596  37.647  0.00  0.00    +0.025 A 
ATOM      3  C9  UNL     1      18.174   7.960  37.840  0.00  0.00    +0.022 A 
ATOM      4  C10 UNL     1      19.291   8.327  37.082  0.00  0.00    +0.053 A 
ATOM      5 CL1  UNL     1      20.829   7.553  37.456  0.00  0.00    -0.083 Cl
ATOM      6  C11 UNL     1      19.177   9.347  36.113  0.00  0.00    +0.057 A 
ATOM      7  C18 UNL     1      17.941   9.995  35.941  0.00  0.00    +0.037 A 
ENDROOT
BRANCH   1  14
ATOM      8  N1  UNL     1      11.833  13.908  35.681  0.00  0.00    -0.297 NA
ATOM      9  C4  UNL     1      11.695  12.529  36.221  0.00  0.00    +0.103 C 
ATOM     10  C5  UNL     1      12.957  11.670  36.047  0.00  0.00    +0.124 C 
ATOM     11  N2  UNL     1      14.134  12.358  36.590  0.00  0.00    -0.283 N 
ATOM     12  C6  UNL     1      15.302  11.624  37.007  0.00  0.00    +0.307 C 
ATOM     13  O2  UNL     1      16.088  12.143  37.846  0.00  0.00    -0.252 OA
ATOM     14  N3  UNL     1      15.572  10.307  36.492  0.00  0.00    -0.269 N 
ATOM     15  C19 UNL     1      14.114  13.821  36.700  0.00  0.00    +0.124 C 
ATOM     16  C20 UNL     1      13.227  14.403  35.597  0.00  0.00    +0.103 C 
ATOM     17  H12 UNL     1      14.816   9.797  35.985  0.00  0.00    +0.156 HD
BRANCH   8  18
ATOM     18  C3  UNL     1      11.129  14.082  34.392  0.00  0.00    +0.115 C 
BRANCH  18  20
ATOM     19  C1  UNL     1      12.240  13.344  32.223  0.00  0.00    +0.039 C 
ATOM     20  C2  UNL     1      12.115  14.461  33.268  0.00  0.00    +0.125 C 
BRANCH  20  21
ATOM     21  O1  UNL     1      11.717  15.661  32.654  0.00  0.00    -0.391 OA
ATOM     22  H5  UNL     1      11.240  15.427  31.816  0.00  0.00    +0.210 HD
ENDBRANCH  20  21
ENDBRANCH  18  20
ENDBRANCH   8  18
ENDBRANCH   1  14
BRANCH   6  23
ATOM     23  C12 UNL     1      20.327   9.776  35.288  0.00  0.00    +0.246 C 
ATOM     24  O3  UNL     1      20.900  10.869  35.547  0.00  0.00    -0.270 OA
ATOM     25  N4  UNL     1      20.763   8.986  34.172  0.00  0.00    -0.307 N 
ATOM     26  H15 UNL     1      20.154   8.209  33.828  0.00  0.00    +0.149 HD
BRANCH  25  27
ATOM     27  C13 UNL     1      22.018   9.245  33.473  0.00  0.00    +0.147 C 
BRANCH  27  28
ATOM     28  C14 UNL     1      22.928   8.065  33.597  0.00  0.00    +0.007 A 
ATOM     29  C15 UNL     1      23.286   7.439  34.784  0.00  0.00    +0.013 A 
ATOM     30  C16 UNL     1      24.199   6.395  34.600  0.00  0.00    +0.008 A 
ATOM     31  C17 UNL     1      24.565   6.200  33.276  0.00  0.00    +0.045 A 
ATOM     32  S1  UNL     1      23.754   7.331  32.331  0.00  0.00    -0.100 S 
ENDBRANCH  27  28
ENDBRANCH  25  27
ENDBRANCH   6  23
TORSDOF 7
ENDMDL
MODEL 3
REMARK VINA RESULT:    -6.214     13.609     17.745
REMARK INTER + INTRA:          -9.223
REMARK INTER:                  -8.575
REMARK INTRA:                  -0.648
REMARK UNBOUND:                -0.648
REMARK  Name = /home/qwerty/github/datacon2025hack/step_04_hit_selection/docking/ligands/lig_180.pdb
REMARK  8 active torsions:
REMARK  status: ('A' for Active; 'I' for Inactive)
REMARK    1  A    between atoms: C1_1  and  C2_2
REMARK    2  A    between atoms: C2_2  and  O1_3
REMARK    3  A    between atoms: C2_2  and  C3_4
REMARK    4  A    between atoms: C3_4  and  N1_5
REMARK    5  A    between atoms: N3_11  and  C7_12
REMARK    6  A    between atoms: C11_17  and  C12_18
REMARK    7  A    between atoms: N4_20  and  C13_21
REMARK    8  A    between atoms: C13_21  and  C14_22
REMARK                            x       y       z     vdW  Elec       q    Type
REMARK                         _______ _______ _______ _____ _____    ______ ____
ROOT
ATOM      1  C7  UNL     1      13.917  12.173  35.113  0.00  0.00    +0.036 A 
ATOM      2  C8  UNL     1      13.050  12.277  36.214  0.00  0.00    +0.025 A 
ATOM      3  C9  UNL     1      11.880  13.032  36.122  0.00  0.00    +0.022 A 
ATOM      4  C10 UNL     1      11.551  13.690  34.932  0.00  0.00    +0.053 A 
ATOM      5 CL1  UNL     1      10.006  14.536  34.860  0.00  0.00    -0.083 Cl
ATOM      6  C11 UNL     1      12.409  13.592  33.815  0.00  0.00    +0.057 A 
ATOM      7  C18 UNL     1      13.575  12.813  33.912  0.00  0.00    +0.037 A 
ENDROOT
BRANCH   1  14
ATOM      8  N1  UNL     1      19.650   9.095  36.513  0.00  0.00    -0.297 NA
ATOM      9  C4  UNL     1      18.979   9.119  35.186  0.00  0.00    +0.103 C 
ATOM     10  C5  UNL     1      17.531   9.631  35.236  0.00  0.00    +0.124 C 
ATOM     11  N2  UNL     1      17.463  10.933  35.912  0.00  0.00    -0.283 N 
ATOM     12  C6  UNL     1      16.374  11.845  35.668  0.00  0.00    +0.307 C 
ATOM     13  O2  UNL     1      16.541  13.076  35.885  0.00  0.00    -0.252 OA
ATOM     14  N3  UNL     1      15.109  11.371  35.168  0.00  0.00    -0.269 N 
ATOM     15  C19 UNL     1      18.526  11.301  36.853  0.00  0.00    +0.124 C 
ATOM     16  C20 UNL     1      19.086  10.037  37.508  0.00  0.00    +0.103 C 
ATOM     17  H12 UNL     1      15.049  10.405  34.779  0.00  0.00    +0.156 HD
BRANCH   8  18
ATOM     18  C3  UNL     1      19.748   7.729  37.071  0.00  0.00    +0.115 C 
BRANCH  18  20
ATOM     19  C1  UNL     1      22.051   7.356  36.050  0.00  0.00    +0.039 C 
ATOM     20  C2  UNL     1      21.217   7.343  37.338  0.00  0.00    +0.125 C 
BRANCH  20  21
ATOM     21  O1  UNL     1      21.782   8.206  38.293  0.00  0.00    -0.391 OA
ATOM     22  H5  UNL     1      22.766   8.197  38.164  0.00  0.00    +0.210 HD
ENDBRANCH  20  21
ENDBRANCH  18  20
ENDBRANCH   8  18
ENDBRANCH   1  14
BRANCH   6  23
ATOM     23  C12 UNL     1      12.106  14.265  32.534  0.00  0.00    +0.246 C 
ATOM     24  O3  UNL     1      12.250  15.515  32.443  0.00  0.00    -0.270 OA
ATOM     25  N4  UNL     1      11.607  13.519  31.415  0.00  0.00    -0.307 N 
ATOM     26  H15 UNL     1      11.280  12.537  31.561  0.00  0.00    +0.149 HD
BRANCH  25  27
ATOM     27  C13 UNL     1      11.508  14.091  30.074  0.00  0.00    +0.147 C 
BRANCH  27  28
ATOM     28  C14 UNL     1      10.279  13.582  29.389  0.00  0.00    +0.007 A 
ATOM     29  C15 UNL     1       9.272  12.834  29.982  0.00  0.00    +0.013 A 
ATOM     30  C16 UNL     1       8.272  12.448  29.083  0.00  0.00    +0.008 A 
ATOM     31  C17 UNL     1       8.492  12.884  27.784  0.00  0.00    +0.045 A 
ATOM     32  S1  UNL     1       9.934  13.749  27.753  0.00  0.00    -0.100 S 
ENDBRANCH  27  28
ENDBRANCH  25  27
ENDBRANCH   6  23
TORSDOF 7
ENDMDL
MODEL 4
REMARK VINA RESULT:    -6.209      8.289     10.440
REMARK INTER + INTRA:          -9.216
REMARK INTER:                  -8.404
REMARK INTRA:                  -0.812
REMARK UNBOUND:                -0.648
REMARK  Name = /home/qwerty/github/datacon2025hack/step_04_hit_selection/docking/ligands/lig_180.pdb
REMARK  8 active torsions:
REMARK  status: ('A' for Active; 'I' for Inactive)
REMARK    1  A    between atoms: C1_1  and  C2_2
REMARK    2  A    between atoms: C2_2  and  O1_3
REMARK    3  A    between atoms: C2_2  and  C3_4
REMARK    4  A    between atoms: C3_4  and  N1_5
REMARK    5  A    between atoms: N3_11  and  C7_12
REMARK    6  A    between atoms: C11_17  and  C12_18
REMARK    7  A    between atoms: N4_20  and  C13_21
REMARK    8  A    between atoms: C13_21  and  C14_22
REMARK                            x       y       z     vdW  Elec       q    Type
REMARK                         _______ _______ _______ _____ _____    ______ ____
ROOT
ATOM      1  C7  UNL     1      21.646   3.510  24.675  0.00  0.00    +0.036 A 
ATOM      2  C8  UNL     1      22.570   3.599  25.730  0.00  0.00    +0.025 A 
ATOM      3  C9  UNL     1      22.444   2.775  26.849  0.00  0.00    +0.022 A 
ATOM      4  C10 UNL     1      21.401   1.846  26.934  0.00  0.00    +0.053 A 
ATOM      5 CL1  UNL     1      21.370   0.770  28.329  0.00  0.00    -0.083 Cl
ATOM      6  C11 UNL     1      20.467   1.742  25.881  0.00  0.00    +0.057 A 
ATOM      7  C18 UNL     1      20.615   2.562  24.749  0.00  0.00    +0.037 A 
ENDROOT
BRANCH   1  14
ATOM      8  N1  UNL     1      21.941   8.259  20.021  0.00  0.00    -0.297 NA
ATOM      9  C4  UNL     1      21.853   6.796  19.765  0.00  0.00    +0.103 C 
ATOM     10  C5  UNL     1      22.116   5.936  21.010  0.00  0.00    +0.124 C 
ATOM     11  N2  UNL     1      21.254   6.353  22.123  0.00  0.00    -0.283 N 
ATOM     12  C6  UNL     1      20.932   5.449  23.198  0.00  0.00    +0.307 C 
ATOM     13  O2  UNL     1      19.887   5.647  23.876  0.00  0.00    -0.252 OA
ATOM     14  N3  UNL     1      21.775   4.320  23.493  0.00  0.00    -0.269 N 
ATOM     15  C19 UNL     1      20.722   7.720  22.134  0.00  0.00    +0.124 C 
ATOM     16  C20 UNL     1      21.705   8.656  21.428  0.00  0.00    +0.103 C 
ATOM     17  H12 UNL     1      22.498   4.032  22.799  0.00  0.00    +0.156 HD
BRANCH   8  18
ATOM     18  C3  UNL     1      23.198   8.846  19.507  0.00  0.00    +0.115 C 
BRANCH  18  20
ATOM     19  C1  UNL     1      25.315   8.063  20.687  0.00  0.00    +0.039 C 
ATOM     20  C2  UNL     1      24.195   9.112  20.653  0.00  0.00    +0.125 C 
BRANCH  20  21
ATOM     21  O1  UNL     1      24.740  10.402  20.537  0.00  0.00    -0.391 OA
ATOM     22  H5  UNL     1      25.722  10.328  20.657  0.00  0.00    +0.210 HD
ENDBRANCH  20  21
ENDBRANCH  18  20
ENDBRANCH   8  18
ENDBRANCH   1  14
BRANCH   6  23
ATOM     23  C12 UNL     1      19.349   0.774  25.919  0.00  0.00    +0.246 C 
ATOM     24  O3  UNL     1      18.459   0.894  26.805  0.00  0.00    -0.270 OA
ATOM     25  N4  UNL     1      19.294  -0.319  24.992  0.00  0.00    -0.307 N 
ATOM     26  H15 UNL     1      20.136  -0.542  24.415  0.00  0.00    +0.149 HD
BRANCH  25  27
ATOM     27  C13 UNL     1      18.109  -1.160  24.843  0.00  0.00    +0.147 C 
BRANCH  27  28
ATOM     28  C14 UNL     1      17.362  -0.778  23.605  0.00  0.00    +0.007 A 
ATOM     29  C15 UNL     1      17.206  -1.570  22.476  0.00  0.00    +0.013 A 
ATOM     30  C16 UNL     1      16.505  -0.929  21.448  0.00  0.00    +0.008 A 
ATOM     31  C17 UNL     1      16.115   0.365  21.762  0.00  0.00    +0.045 A 
ATOM     32  S1  UNL     1      16.644   0.714  23.319  0.00  0.00    -0.100 S 
ENDBRANCH  27  28
ENDBRANCH  25  27
ENDBRANCH   6  23
TORSDOF 7
ENDMDL
MODEL 5
REMARK VINA RESULT:    -6.112     14.084     15.496
REMARK INTER + INTRA:          -9.082
REMARK INTER:                  -8.407
REMARK INTRA:                  -0.676
REMARK UNBOUND:                -0.648
REMARK  Name = /home/qwerty/github/datacon2025hack/step_04_hit_selection/docking/ligands/lig_180.pdb
REMARK  8 active torsions:
REMARK  status: ('A' for Active; 'I' for Inactive)
REMARK    1  A    between atoms: C1_1  and  C2_2
REMARK    2  A    between atoms: C2_2  and  O1_3
REMARK    3  A    between atoms: C2_2  and  C3_4
REMARK    4  A    between atoms: C3_4  and  N1_5
REMARK    5  A    between atoms: N3_11  and  C7_12
REMARK    6  A    between atoms: C11_17  and  C12_18
REMARK    7  A    between atoms: N4_20  and  C13_21
REMARK    8  A    between atoms: C13_21  and  C14_22
REMARK                            x       y       z     vdW  Elec       q    Type
REMARK                         _______ _______ _______ _____ _____    ______ ____
ROOT
ATOM      1  C7  UNL     1      21.555   7.239  35.248  0.00  0.00    +0.036 A 
ATOM      2  C8  UNL     1      22.736   6.881  35.919  0.00  0.00    +0.025 A 
ATOM      3  C9  UNL     1      23.801   6.314  35.219  0.00  0.00    +0.022 A 
ATOM      4  C10 UNL     1      23.711   6.099  33.839  0.00  0.00    +0.053 A 
ATOM      5 CL1  UNL     1      25.135   5.477  33.008  0.00  0.00    -0.083 Cl
ATOM      6  C11 UNL     1      22.532   6.457  33.149  0.00  0.00    +0.057 A 
ATOM      7  C18 UNL     1      21.473   7.046  33.861  0.00  0.00    +0.037 A 
ENDROOT
BRANCH   1  14
ATOM      8  N1  UNL     1      16.686  11.116  37.605  0.00  0.00    -0.297 NA
ATOM      9  C4  UNL     1      17.263   9.932  38.295  0.00  0.00    +0.103 C 
ATOM     10  C5  UNL     1      18.140   9.056  37.386  0.00  0.00    +0.124 C 
ATOM     11  N2  UNL     1      19.171   9.864  36.722  0.00  0.00    -0.283 N 
ATOM     12  C6  UNL     1      20.389   9.268  36.237  0.00  0.00    +0.307 C 
ATOM     13  O2  UNL     1      21.412   9.991  36.086  0.00  0.00    -0.252 OA
ATOM     14  N3  UNL     1      20.457   7.861  35.939  0.00  0.00    -0.269 N 
ATOM     15  C19 UNL     1      18.944  11.303  36.550  0.00  0.00    +0.124 C 
ATOM     16  C20 UNL     1      17.443  11.570  36.415  0.00  0.00    +0.103 C 
ATOM     17  H12 UNL     1      19.695   7.234  36.277  0.00  0.00    +0.156 HD
BRANCH   8  18
ATOM     18  C3  UNL     1      15.252  10.940  37.287  0.00  0.00    +0.115 C 
BRANCH  18  20
ATOM     19  C1  UNL     1      13.632  11.755  35.499  0.00  0.00    +0.039 C 
ATOM     20  C2  UNL     1      14.699  12.161  36.524  0.00  0.00    +0.125 C 
BRANCH  20  21
ATOM     21  O1  UNL     1      14.175  13.104  37.425  0.00  0.00    -0.391 OA
ATOM     22  H5  UNL     1      13.196  13.159  37.269  0.00  0.00    +0.210 HD
ENDBRANCH  20  21
ENDBRANCH  18  20
ENDBRANCH   8  18
ENDBRANCH   1  14
BRANCH   6  23
ATOM     23  C12 UNL     1      22.386   6.255  31.691  0.00  0.00    +0.246 C 
ATOM     24  O3  UNL     1      23.029   6.995  30.898  0.00  0.00    -0.270 OA
ATOM     25  N4  UNL     1      21.488   5.262  31.176  0.00  0.00    -0.307 N 
ATOM     26  H15 UNL     1      20.800   4.812  31.821  0.00  0.00    +0.149 HD
BRANCH  25  27
ATOM     27  C13 UNL     1      21.476   4.873  29.768  0.00  0.00    +0.147 C 
BRANCH  27  28
ATOM     28  C14 UNL     1      21.475   3.382  29.648  0.00  0.00    +0.007 A 
ATOM     29  C15 UNL     1      21.859   2.489  30.639  0.00  0.00    +0.013 A 
ATOM     30  C16 UNL     1      21.808   1.153  30.224  0.00  0.00    +0.008 A 
ATOM     31  C17 UNL     1      21.392   0.992  28.910  0.00  0.00    +0.045 A 
ATOM     32  S1  UNL     1      21.089   2.514  28.262  0.00  0.00    -0.100 S 
ENDBRANCH  27  28
ENDBRANCH  25  27
ENDBRANCH   6  23
TORSDOF 7
ENDMDL
MODEL 6
REMARK VINA RESULT:    -5.944      4.085      6.055
REMARK INTER + INTRA:          -8.850
REMARK INTER:                  -8.183
REMARK INTRA:                  -0.668
REMARK UNBOUND:                -0.648
REMARK  Name = /home/qwerty/github/datacon2025hack/step_04_hit_selection/docking/ligands/lig_180.pdb
REMARK  8 active torsions:
REMARK  status: ('A' for Active; 'I' for Inactive)
REMARK    1  A    between atoms: C1_1  and  C2_2
REMARK    2  A    between atoms: C2_2  and  O1_3
REMARK    3  A    between atoms: C2_2  and  C3_4
REMARK    4  A    between atoms: C3_4  and  N1_5
REMARK    5  A    between atoms: N3_11  and  C7_12
REMARK    6  A    between atoms: C11_17  and  C12_18
REMARK    7  A    between atoms: N4_20  and  C13_21
REMARK    8  A    between atoms: C13_21  and  C14_22
REMARK                            x       y       z     vdW  Elec       q    Type
REMARK                         _______ _______ _______ _____ _____    ______ ____
ROOT
ATOM      1  C7  UNL     1      15.372   0.541  22.883  0.00  0.00    +0.036 A 
ATOM      2  C8  UNL     1      15.231  -0.819  22.564  0.00  0.00    +0.025 A 
ATOM      3  C9  UNL     1      15.988  -1.783  23.231  0.00  0.00    +0.022 A 
ATOM      4  C10 UNL     1      16.893  -1.409  24.231  0.00  0.00    +0.053 A 
ATOM      5 CL1  UNL     1      17.733  -2.691  25.100  0.00  0.00    -0.083 Cl
ATOM      6  C11 UNL     1      17.043  -0.046  24.567  0.00  0.00    +0.057 A 
ATOM      7  C18 UNL     1      16.261   0.914  23.902  0.00  0.00    +0.037 A 
ENDROOT
BRANCH   1  14
ATOM      8  N1  UNL     1      11.308   5.511  21.128  0.00  0.00    -0.297 NA
ATOM      9  C4  UNL     1      11.854   4.473  20.215  0.00  0.00    +0.103 C 
ATOM     10  C5  UNL     1      13.001   3.654  20.828  0.00  0.00    +0.124 C 
ATOM     11  N2  UNL     1      12.604   3.093  22.125  0.00  0.00    -0.283 N 
ATOM     12  C6  UNL     1      13.253   1.925  22.664  0.00  0.00    +0.307 C 
ATOM     13  O2  UNL     1      12.643   1.216  23.510  0.00  0.00    -0.252 OA
ATOM     14  N3  UNL     1      14.577   1.551  22.238  0.00  0.00    -0.269 N 
ATOM     15  C19 UNL     1      11.528   3.744  22.881  0.00  0.00    +0.124 C 
ATOM     16  C20 UNL     1      11.521   5.242  22.569  0.00  0.00    +0.103 C 
ATOM     17  H12 UNL     1      14.980   1.998  21.385  0.00  0.00    +0.156 HD
BRANCH   8  18
ATOM     18  C3  UNL     1      11.762   6.873  20.770  0.00  0.00    +0.115 C 
BRANCH  18  20
ATOM     19  C1  UNL     1      10.991   9.111  19.830  0.00  0.00    +0.039 C 
ATOM     20  C2  UNL     1      10.563   7.811  20.524  0.00  0.00    +0.125 C 
BRANCH  20  21
ATOM     21  O1  UNL     1       9.578   7.155  19.766  0.00  0.00    -0.391 OA
ATOM     22  H5  UNL     1       8.864   7.815  19.563  0.00  0.00    +0.210 HD
ENDBRANCH  20  21
ENDBRANCH  18  20
ENDBRANCH   8  18
ENDBRANCH   1  14
BRANCH   6  23
ATOM     23  C12 UNL     1      17.982   0.402  25.618  0.00  0.00    +0.246 C 
ATOM     24  O3  UNL     1      17.528   0.767  26.737  0.00  0.00    -0.270 OA
ATOM     25  N4  UNL     1      19.391   0.470  25.361  0.00  0.00    -0.307 N 
ATOM     26  H15 UNL     1      19.735   0.384  24.378  0.00  0.00    +0.149 HD
BRANCH  25  27
ATOM     27  C13 UNL     1      20.371   0.686  26.422  0.00  0.00    +0.147 C 
BRANCH  27  28
ATOM     28  C14 UNL     1      21.178   1.911  26.132  0.00  0.00    +0.007 A 
ATOM     29  C15 UNL     1      22.134   2.470  26.970  0.00  0.00    +0.013 A 
ATOM     30  C16 UNL     1      22.689   3.649  26.462  0.00  0.00    +0.008 A 
ATOM     31  C17 UNL     1      22.171   4.024  25.230  0.00  0.00    +0.045 A 
ATOM     32  S1  UNL     1      21.018   2.888  24.774  0.00  0.00    -0.100 S 
ENDBRANCH  27  28
ENDBRANCH  25  27
ENDBRANCH   6  23
TORSDOF 7
ENDMDL
MODEL 7
REMARK VINA RESULT:    -5.849      7.997     11.970
REMARK INTER + INTRA:          -8.720
REMARK INTER:                  -7.896
REMARK INTRA:                  -0.824
REMARK UNBOUND:                -0.648
REMARK  Name = /home/qwerty/github/datacon2025hack/step_04_hit_selection/docking/ligands/lig_180.pdb
REMARK  8 active torsions:
REMARK  status: ('A' for Active; 'I' for Inactive)
REMARK    1  A    between atoms: C1_1  and  C2_2
REMARK    2  A    between atoms: C2_2  and  O1_3
REMARK    3  A    between atoms: C2_2  and  C3_4
REMARK    4  A    between atoms: C3_4  and  N1_5
REMARK    5  A    between atoms: N3_11  and  C7_12
REMARK    6  A    between atoms: C11_17  and  C12_18
REMARK    7  A    between atoms: N4_20  and  C13_21
REMARK    8  A    between atoms: C13_21  and  C14_22
REMARK                            x       y       z     vdW  Elec       q    Type
REMARK                         _______ _______ _______ _____ _____    ______ ____
ROOT
ATOM      1  C7  UNL     1      21.041   4.062  26.055  0.00  0.00    +0.036 A 
ATOM      2  C8  UNL     1      22.239   4.787  26.169  0.00  0.00    +0.025 A 
ATOM      3  C9  UNL     1      22.766   5.456  25.064  0.00  0.00    +0.022 A 
ATOM      4  C10 UNL     1      22.108   5.419  23.829  0.00  0.00    +0.053 A 
ATOM      5 CL1  UNL     1      22.780   6.375  22.510  0.00  0.00    -0.083 Cl
ATOM      6  C11 UNL     1      20.901   4.699  23.700  0.00  0.00    +0.057 A 
ATOM      7  C18 UNL     1      20.368   4.045  24.824  0.00  0.00    +0.037 A 
ENDROOT
BRANCH   1  14
ATOM      8  N1  UNL     1      19.576   0.596  31.544  0.00  0.00    -0.297 NA
ATOM      9  C4  UNL     1      18.599   1.053  30.520  0.00  0.00    +0.103 C 
ATOM     10  C5  UNL     1      19.173   2.089  29.541  0.00  0.00    +0.124 C 
ATOM     11  N2  UNL     1      20.418   1.600  28.936  0.00  0.00    -0.283 N 
ATOM     12  C6  UNL     1      20.882   2.108  27.670  0.00  0.00    +0.307 C 
ATOM     13  O2  UNL     1      21.663   1.404  26.973  0.00  0.00    -0.252 OA
ATOM     14  N3  UNL     1      20.456   3.395  27.187  0.00  0.00    -0.269 N 
ATOM     15  C19 UNL     1      21.199   0.580  29.644  0.00  0.00    +0.124 C 
ATOM     16  C20 UNL     1      20.997   0.740  31.152  0.00  0.00    +0.103 C 
ATOM     17  H12 UNL     1      19.646   3.866  27.647  0.00  0.00    +0.156 HD
BRANCH   8  18
ATOM     18  C3  UNL     1      19.326   1.201  32.871  0.00  0.00    +0.115 C 
BRANCH  18  20
ATOM     19  C1  UNL     1      20.016   3.599  33.378  0.00  0.00    +0.039 C 
ATOM     20  C2  UNL     1      20.480   2.140  33.278  0.00  0.00    +0.125 C 
BRANCH  20  21
ATOM     21  O1  UNL     1      21.043   1.723  34.496  0.00  0.00    -0.391 OA
ATOM     22  H5  UNL     1      20.300   1.441  35.091  0.00  0.00    +0.210 HD
ENDBRANCH  20  21
ENDBRANCH  18  20
ENDBRANCH   8  18
ENDBRANCH   1  14
BRANCH   6  23
ATOM     23  C12 UNL     1      20.163   4.632  22.420  0.00  0.00    +0.246 C 
ATOM     24  O3  UNL     1      20.747   4.189  21.393  0.00  0.00    -0.270 OA
ATOM     25  N4  UNL     1      18.813   5.106  22.327  0.00  0.00    -0.307 N 
ATOM     26  H15 UNL     1      18.415   5.671  23.111  0.00  0.00    +0.149 HD
BRANCH  25  27
ATOM     27  C13 UNL     1      17.975   4.857  21.157  0.00  0.00    +0.147 C 
BRANCH  27  28
ATOM     28  C14 UNL     1      17.216   3.580  21.332  0.00  0.00    +0.007 A 
ATOM     29  C15 UNL     1      17.256   2.761  22.452  0.00  0.00    +0.013 A 
ATOM     30  C16 UNL     1      16.487   1.600  22.312  0.00  0.00    +0.008 A 
ATOM     31  C17 UNL     1      15.847   1.501  21.084  0.00  0.00    +0.045 A 
ATOM     32  S1  UNL     1      16.240   2.857  20.171  0.00  0.00    -0.100 S 
ENDBRANCH  27  28
ENDBRANCH  25  27
ENDBRANCH   6  23
TORSDOF 7
ENDMDL
MODEL 8
REMARK VINA RESULT:    -5.813      9.887     13.998
REMARK INTER + INTRA:          -8.669
REMARK INTER:                  -7.940
REMARK INTRA:                  -0.729
REMARK UNBOUND:                -0.648
REMARK  Name = /home/qwerty/github/datacon2025hack/step_04_hit_selection/docking/ligands/lig_180.pdb
REMARK  8 active torsions:
REMARK  status: ('A' for Active; 'I' for Inactive)
REMARK    1  A    between atoms: C1_1  and  C2_2
REMARK    2  A    between atoms: C2_2  and  O1_3
REMARK    3  A    between atoms: C2_2  and  C3_4
REMARK    4  A    between atoms: C3_4  and  N1_5
REMARK    5  A    between atoms: N3_11  and  C7_12
REMARK    6  A    between atoms: C11_17  and  C12_18
REMARK    7  A    between atoms: N4_20  and  C13_21
REMARK    8  A    between atoms: C13_21  and  C14_22
REMARK                            x       y       z     vdW  Elec       q    Type
REMARK                         _______ _______ _______ _____ _____    ______ ____
ROOT
ATOM      1  C7  UNL     1      10.680  12.064  30.982  0.00  0.00    +0.036 A 
ATOM      2  C8  UNL     1      10.704  13.404  30.561  0.00  0.00    +0.025 A 
ATOM      3  C9  UNL     1       9.931  13.817  29.475  0.00  0.00    +0.022 A 
ATOM      4  C10 UNL     1       9.116  12.904  28.795  0.00  0.00    +0.053 A 
ATOM      5 CL1  UNL     1       8.089  13.522  27.503  0.00  0.00    -0.083 Cl
ATOM      6  C11 UNL     1       9.076  11.555  29.210  0.00  0.00    +0.057 A 
ATOM      7  C18 UNL     1       9.845  11.155  30.317  0.00  0.00    +0.037 A 
ENDROOT
BRANCH   1  14
ATOM      8  N1  UNL     1      15.199  10.618  35.649  0.00  0.00    -0.297 NA
ATOM      9  C4  UNL     1      13.870   9.969  35.497  0.00  0.00    +0.103 C 
ATOM     10  C5  UNL     1      12.925  10.715  34.542  0.00  0.00    +0.124 C 
ATOM     11  N2  UNL     1      13.575  10.950  33.247  0.00  0.00    -0.283 N 
ATOM     12  C6  UNL     1      12.800  11.160  32.050  0.00  0.00    +0.307 C 
ATOM     13  O2  UNL     1      13.323  10.921  30.927  0.00  0.00    -0.252 OA
ATOM     14  N3  UNL     1      11.438  11.621  32.122  0.00  0.00    -0.269 N 
ATOM     15  C19 UNL     1      15.040  10.975  33.181  0.00  0.00    +0.124 C 
ATOM     16  C20 UNL     1      15.601  11.478  34.512  0.00  0.00    +0.103 C 
ATOM     17  H12 UNL     1      10.942  11.598  33.040  0.00  0.00    +0.156 HD
BRANCH   8  18
ATOM     18  C3  UNL     1      15.332  11.339  36.934  0.00  0.00    +0.115 C 
BRANCH  18  20
ATOM     19  C1  UNL     1      14.258  13.648  36.922  0.00  0.00    +0.039 C 
ATOM     20  C2  UNL     1      15.549  12.848  36.703  0.00  0.00    +0.125 C 
BRANCH  20  21
ATOM     21  O1  UNL     1      16.568  13.329  37.543  0.00  0.00    -0.391 OA
ATOM     22  H5  UNL     1      16.359  13.036  38.469  0.00  0.00    +0.210 HD
ENDBRANCH  20  21
ENDBRANCH  18  20
ENDBRANCH   8  18
ENDBRANCH   1  14
BRANCH   6  23
ATOM     23  C12 UNL     1       8.230  10.552  28.529  0.00  0.00    +0.246 C 
ATOM     24  O3  UNL     1       7.187  10.133  29.102  0.00  0.00    -0.270 OA
ATOM     25  N4  UNL     1       8.609  10.019  27.252  0.00  0.00    -0.307 N 
ATOM     26  H15 UNL     1       9.573  10.197  26.890  0.00  0.00    +0.149 HD
BRANCH  25  27
ATOM     27  C13 UNL     1       7.704   9.205  26.444  0.00  0.00    +0.147 C 
BRANCH  27  28
ATOM     28  C14 UNL     1       8.085   9.294  25.001  0.00  0.00    +0.007 A 
ATOM     29  C15 UNL     1       7.424  10.039  24.033  0.00  0.00    +0.013 A 
ATOM     30  C16 UNL     1       7.971   9.886  22.754  0.00  0.00    +0.008 A 
ATOM     31  C17 UNL     1       9.056   9.021  22.711  0.00  0.00    +0.045 A 
ATOM     32  S1  UNL     1       9.333   8.442  24.265  0.00  0.00    -0.100 S 
ENDBRANCH  27  28
ENDBRANCH  25  27
ENDBRANCH   6  23
TORSDOF 7
ENDMDL
MODEL 9
REMARK VINA RESULT:    -5.796     14.218     15.426
REMARK INTER + INTRA:          -8.647
REMARK INTER:                  -7.851
REMARK INTRA:                  -0.796
REMARK UNBOUND:                -0.648
REMARK  Name = /home/qwerty/github/datacon2025hack/step_04_hit_selection/docking/ligands/lig_180.pdb
REMARK  8 active torsions:
REMARK  status: ('A' for Active; 'I' for Inactive)
REMARK    1  A    between atoms: C1_1  and  C2_2
REMARK    2  A    between atoms: C2_2  and  O1_3
REMARK    3  A    between atoms: C2_2  and  C3_4
REMARK    4  A    between atoms: C3_4  and  N1_5
REMARK    5  A    between atoms: N3_11  and  C7_12
REMARK    6  A    between atoms: C11_17  and  C12_18
REMARK    7  A    between atoms: N4_20  and  C13_21
REMARK    8  A    between atoms: C13_21  and  C14_22
REMARK                            x       y       z     vdW  Elec       q    Type
REMARK                         _______ _______ _______ _____ _____    ______ ____
ROOT
ATOM      1  C7  UNL     1      21.649  15.430  26.969  0.00  0.00    +0.036 A 
ATOM      2  C8  UNL     1      21.758  16.573  27.778  0.00  0.00    +0.025 A 
ATOM      3  C9  UNL     1      21.563  16.483  29.156  0.00  0.00    +0.022 A 
ATOM      4  C10 UNL     1      21.261  15.254  29.753  0.00  0.00    +0.053 A 
ATOM      5 CL1  UNL     1      21.132  15.202  31.510  0.00  0.00    -0.083 Cl
ATOM      6  C11 UNL     1      21.152  14.095  28.955  0.00  0.00    +0.057 A 
ATOM      7  C18 UNL     1      21.371  14.193  27.569  0.00  0.00    +0.037 A 
ENDROOT
BRANCH   1  14
ATOM      8  N1  UNL     1      23.255  14.491  20.578  0.00  0.00    -0.297 NA
ATOM      9  C4  UNL     1      22.912  15.795  21.205  0.00  0.00    +0.103 C 
ATOM     10  C5  UNL     1      22.284  15.662  22.601  0.00  0.00    +0.124 C 
ATOM     11  N2  UNL     1      23.127  14.837  23.474  0.00  0.00    -0.283 N 
ATOM     12  C6  UNL     1      23.057  14.954  24.909  0.00  0.00    +0.307 C 
ATOM     13  O2  UNL     1      24.045  14.595  25.606  0.00  0.00    -0.252 OA
ATOM     14  N3  UNL     1      21.884  15.487  25.551  0.00  0.00    -0.269 N 
ATOM     15  C19 UNL     1      24.052  13.874  22.865  0.00  0.00    +0.124 C 
ATOM     16  C20 UNL     1      23.473  13.382  21.537  0.00  0.00    +0.103 C 
ATOM     17  H12 UNL     1      21.173  15.987  24.973  0.00  0.00    +0.156 HD
BRANCH   8  18
ATOM     18  C3  UNL     1      22.292  14.100  19.525  0.00  0.00    +0.115 C 
BRANCH  18  20
ATOM     19  C1  UNL     1      19.844  13.871  20.186  0.00  0.00    +0.039 C 
ATOM     20  C2  UNL     1      21.202  13.165  20.089  0.00  0.00    +0.125 C 
BRANCH  20  21
ATOM     21  O1  UNL     1      21.095  12.008  19.298  0.00  0.00    -0.391 OA
ATOM     22  H5  UNL     1      20.180  11.644  19.419  0.00  0.00    +0.210 HD
ENDBRANCH  20  21
ENDBRANCH  18  20
ENDBRANCH   8  18
ENDBRANCH   1  14
BRANCH   6  23
ATOM     23  C12 UNL     1      20.839  12.771  29.535  0.00  0.00    +0.246 C 
ATOM     24  O3  UNL     1      19.634  12.444  29.712  0.00  0.00    -0.270 OA
ATOM     25  N4  UNL     1      21.889  11.882  29.940  0.00  0.00    -0.307 N 
ATOM     26  H15 UNL     1      22.869  12.243  30.001  0.00  0.00    +0.149 HD
BRANCH  25  27
ATOM     27  C13 UNL     1      21.640  10.490  30.305  0.00  0.00    +0.147 C 
BRANCH  27  28
ATOM     28  C14 UNL     1      22.756   9.975  31.156  0.00  0.00    +0.007 A 
ATOM     29  C15 UNL     1      24.106  10.243  30.972  0.00  0.00    +0.013 A 
ATOM     30  C16 UNL     1      24.928   9.577  31.888  0.00  0.00    +0.008 A 
ATOM     31  C17 UNL     1      24.232   8.782  32.788  0.00  0.00    +0.045 A 
ATOM     32  S1  UNL     1      22.590   8.905  32.441  0.00  0.00    -0.100 S 
ENDBRANCH  27  28
ENDBRANCH  25  27
ENDBRANCH   6  23
TORSDOF 7
ENDMDL
